api/pglib_opf_case200_activ__api.m
%%%%%%%%%%%%%%%%%%%%%%%%%%%%%%%%%%%%%%%%%%%%%%%%%%%%%%%%%%%%%%%%%%%%%%%%%%%
%%%%                                                                  %%%%%
%%%%    IEEE PES Power Grid Library - Optimal Power Flow - v20.04     %%%%%
%%%%          (https://github.com/power-grid-lib/pglib-opf)           %%%%%
%%%%             Benchmark Group - Active Power Increase              %%%%%
%%%%                         12 - July - 2020                         %%%%%
%%%%                                                                  %%%%%
%%%%%%%%%%%%%%%%%%%%%%%%%%%%%%%%%%%%%%%%%%%%%%%%%%%%%%%%%%%%%%%%%%%%%%%%%%%
function mpc = pglib_opf_case200_activ__api
mpc.version = '2';
mpc.baseMVA = 100.0;

%% bus data
%	bus_i	type	Pd	Qd	Gs	Bs	area	Vm	Va	baseKV	zone	Vmax	Vmin
mpc.bus = [
	1	 1	 0.0	 0.0	 0.0	 0.0	 1	    1.00000	    0.00000	 115.0	 2	    1.10000	    0.90000;
	2	 1	 12.30	 2.10	 0.0	 0.0	 1	    1.00000	    0.00000	 115.0	 2	    1.10000	    0.90000;
	3	 1	 0.0	 0.0	 0.0	 0.0	 1	    1.00000	    0.00000	 115.0	 4	    1.10000	    0.90000;
	4	 1	 2.83	 0.48	 0.0	 0.0	 1	    1.00000	    0.00000	 115.0	 4	    1.10000	    0.90000;
	5	 1	 0.0	 0.0	 0.0	 0.0	 1	    1.00000	    0.00000	 115.0	 6	    1.10000	    0.90000;
	6	 1	 13.23	 2.26	 0.0	 0.0	 1	    1.00000	    0.00000	 115.0	 6	    1.10000	    0.90000;
	7	 1	 0.0	 0.0	 0.0	 0.0	 1	    1.00000	    0.00000	 115.0	 2	    1.10000	    0.90000;
	8	 1	 39.52	 6.77	 0.0	 0.0	 1	    1.00000	    0.00000	 115.0	 2	    1.10000	    0.90000;
	9	 1	 0.0	 0.0	 0.0	 0.0	 1	    1.00000	    0.00000	 115.0	 2	    1.10000	    0.90000;
	10	 1	 71.04	 12.16	 0.0	 0.0	 1	    1.00000	    0.00000	 115.0	 2	    1.10000	    0.90000;
	11	 1	 0.0	 0.0	 0.0	 0.0	 1	    1.00000	    0.00000	 115.0	 4	    1.10000	    0.90000;
	12	 1	 0.50	 0.09	 0.0	 0.0	 1	    1.00000	    0.00000	 115.0	 4	    1.10000	    0.90000;
	13	 1	 4.19	 0.72	 0.0	 0.0	 1	    1.00000	    0.00000	 115.0	 4	    1.10000	    0.90000;
	14	 1	 0.0	 0.0	 0.0	 0.0	 1	    1.00000	    0.00000	 230.0	 4	    1.10000	    0.90000;
	15	 1	 0.0	 0.0	 0.0	 30.0	 1	    1.00000	    0.00000	 115.0	 4	    1.10000	    0.90000;
	16	 1	 74.51	 12.76	 0.0	 0.0	 1	    1.00000	    0.00000	 115.0	 4	    1.10000	    0.90000;
	17	 1	 0.0	 0.0	 0.0	 0.0	 1	    1.00000	    0.00000	 115.0	 4	    1.10000	    0.90000;
	18	 1	 1.18	 0.20	 0.0	 0.0	 1	    1.00000	    0.00000	 115.0	 4	    1.10000	    0.90000;
	19	 1	 1.28	 0.22	 0.0	 0.0	 1	    1.00000	    0.00000	 115.0	 4	    1.10000	    0.90000;
	20	 1	 1.88	 0.32	 0.0	 0.0	 1	    1.00000	    0.00000	 115.0	 4	    1.10000	    0.90000;
	21	 1	 7.67	 1.31	 0.0	 0.0	 1	    1.00000	    0.00000	 115.0	 4	    1.10000	    0.90000;
	22	 1	 0.0	 0.0	 0.0	 0.0	 1	    1.00000	    0.00000	 115.0	 4	    1.10000	    0.90000;
	23	 1	 2.35	 0.40	 0.0	 0.0	 1	    1.00000	    0.00000	 115.0	 4	    1.10000	    0.90000;
	24	 1	 3.99	 0.68	 0.0	 0.0	 1	    1.00000	    0.00000	 115.0	 4	    1.10000	    0.90000;
	25	 1	 0.0	 0.0	 0.0	 0.0	 1	    1.00000	    0.00000	 115.0	 6	    1.10000	    0.90000;
	26	 1	 2.25	 0.39	 0.0	 0.0	 1	    1.00000	    0.00000	 115.0	 6	    1.10000	    0.90000;
	27	 1	 0.0	 0.0	 0.0	 0.0	 1	    1.00000	    0.00000	 115.0	 4	    1.10000	    0.90000;
	28	 1	 3.88	 0.67	 0.0	 0.0	 1	    1.00000	    0.00000	 115.0	 4	    1.10000	    0.90000;
	29	 1	 0.0	 0.0	 0.0	 0.0	 1	    1.00000	    0.00000	 115.0	 2	    1.10000	    0.90000;
	30	 1	 98.36	 16.84	 0.0	 0.0	 1	    1.00000	    0.00000	 115.0	 2	    1.10000	    0.90000;
	31	 1	 0.0	 0.0	 0.0	 0.0	 1	    1.00000	    0.00000	 115.0	 7	    1.10000	    0.90000;
	32	 1	 0.85	 0.15	 0.0	 0.0	 1	    1.00000	    0.00000	 115.0	 7	    1.10000	    0.90000;
	33	 1	 10.72	 1.84	 0.0	 0.0	 1	    1.00000	    0.00000	 115.0	 7	    1.10000	    0.90000;
	34	 1	 0.0	 0.0	 0.0	 0.0	 1	    1.00000	    0.00000	 115.0	 4	    1.10000	    0.90000;
	35	 1	 34.56	 5.92	 0.0	 0.0	 1	    1.00000	    0.00000	 115.0	 4	    1.10000	    0.90000;
	36	 1	 0.0	 0.0	 0.0	 0.0	 1	    1.00000	    0.00000	 115.0	 7	    1.10000	    0.90000;
	37	 1	 5.94	 1.02	 0.0	 0.0	 1	    1.00000	    0.00000	 115.0	 7	    1.10000	    0.90000;
	38	 1	 49.62	 8.50	 0.0	 0.0	 1	    1.00000	    0.00000	 115.0	 7	    1.10000	    0.90000;
	39	 1	 12.33	 2.11	 0.0	 0.0	 1	    1.00000	    0.00000	 115.0	 4	    1.10000	    0.90000;
	40	 1	 3.40	 0.58	 0.0	 0.0	 1	    1.00000	    0.00000	 115.0	 4	    1.10000	    0.90000;
	41	 1	 63.82	 10.93	 0.0	 0.0	 1	    1.00000	    0.00000	 115.0	 5	    1.10000	    0.90000;
	42	 1	 17.68	 3.03	 0.0	 0.0	 1	    1.00000	    0.00000	 115.0	 4	    1.10000	    0.90000;
	43	 1	 3.48	 0.59	 0.0	 0.0	 1	    1.00000	    0.00000	 115.0	 2	    1.10000	    0.90000;
	44	 1	 6.91	 1.18	 0.0	 0.0	 1	    1.00000	    0.00000	 115.0	 4	    1.10000	    0.90000;
	45	 1	 0.0	 0.0	 0.0	 0.0	 1	    1.00000	    0.00000	 230.0	 7	    1.10000	    0.90000;
	46	 1	 10.55	 1.81	 0.0	 0.0	 1	    1.00000	    0.00000	 115.0	 7	    1.10000	    0.90000;
	47	 1	 2.56	 0.44	 0.0	 0.0	 1	    1.00000	    0.00000	 115.0	 4	    1.10000	    0.90000;
	48	 1	 3.03	 0.52	 0.0	 0.0	 1	    1.00000	    0.00000	 115.0	 6	    1.10000	    0.90000;
	49	 2	 0.0	 0.0	 0.0	 0.0	 1	    1.00000	    0.00000	 13.8	 6	    1.10000	    0.90000;
	50	 2	 0.0	 0.0	 0.0	 0.0	 1	    1.00000	    0.00000	 13.8	 6	    1.10000	    0.90000;
	51	 2	 0.0	 0.0	 0.0	 0.0	 1	    1.00000	    0.00000	 13.8	 6	    1.10000	    0.90000;
	52	 2	 0.0	 0.0	 0.0	 0.0	 1	    1.00000	    0.00000	 13.8	 6	    1.10000	    0.90000;
	53	 2	 0.0	 0.0	 0.0	 0.0	 1	    1.00000	    0.00000	 13.8	 6	    1.10000	    0.90000;
	54	 1	 4.43	 0.76	 0.0	 0.0	 1	    1.00000	    0.00000	 115.0	 4	    1.10000	    0.90000;
	55	 1	 0.0	 0.0	 0.0	 0.0	 1	    1.00000	    0.00000	 230.0	 7	    1.10000	    0.90000;
	56	 1	 2.18	 0.37	 0.0	 0.0	 1	    1.00000	    0.00000	 115.0	 7	    1.10000	    0.90000;
	57	 1	 4.69	 0.80	 0.0	 0.0	 1	    1.00000	    0.00000	 115.0	 4	    1.10000	    0.90000;
	58	 1	 7.04	 1.21	 0.0	 0.0	 1	    1.00000	    0.00000	 115.0	 7	    1.10000	    0.90000;
	59	 1	 7.87	 1.35	 0.0	 0.0	 1	    1.00000	    0.00000	 115.0	 2	    1.10000	    0.90000;
	60	 1	 6.33	 1.08	 0.0	 0.0	 1	    1.00000	    0.00000	 115.0	 2	    1.10000	    0.90000;
	61	 1	 34.21	 5.86	 0.0	 0.0	 1	    1.00000	    0.00000	 115.0	 7	    1.10000	    0.90000;
	62	 1	 35.64	 6.10	 0.0	 0.0	 1	    1.00000	    0.00000	 115.0	 4	    1.10000	    0.90000;
	63	 1	 13.28	 2.27	 0.0	 0.0	 1	    1.00000	    0.00000	 115.0	 4	    1.10000	    0.90000;
	64	 1	 0.0	 0.0	 0.0	 0.0	 1	    1.00000	    0.00000	 115.0	 6	    1.10000	    0.90000;
	65	 2	 0.0	 0.0	 0.0	 0.0	 1	    1.00000	    0.00000	 13.8	 6	    1.10000	    0.90000;
	66	 1	 0.0	 0.0	 0.0	 0.0	 1	    1.00000	    0.00000	 115.0	 4	    1.10000	    0.90000;
	67	 2	 0.0	 0.0	 0.0	 0.0	 1	    1.00000	    0.00000	 13.8	 4	    1.10000	    0.90000;
	68	 2	 0.0	 0.0	 0.0	 0.0	 1	    1.00000	    0.00000	 13.8	 4	    1.10000	    0.90000;
	69	 2	 0.0	 0.0	 0.0	 0.0	 1	    1.00000	    0.00000	 13.8	 4	    1.10000	    0.90000;
	70	 2	 0.0	 0.0	 0.0	 0.0	 1	    1.00000	    0.00000	 13.8	 4	    1.10000	    0.90000;
	71	 2	 0.0	 0.0	 0.0	 0.0	 1	    1.00000	    0.00000	 13.8	 4	    1.10000	    0.90000;
	72	 2	 0.0	 0.0	 0.0	 0.0	 1	    1.00000	    0.00000	 13.8	 4	    1.10000	    0.90000;
	73	 2	 0.0	 0.0	 0.0	 0.0	 1	    1.00000	    0.00000	 13.8	 4	    1.10000	    0.90000;
	74	 1	 31.23	 5.35	 0.0	 0.0	 1	    1.00000	    0.00000	 115.0	 6	    1.10000	    0.90000;
	75	 1	 5.99	 1.03	 0.0	 0.0	 1	    1.00000	    0.00000	 115.0	 2	    1.10000	    0.90000;
	76	 2	 0.0	 0.0	 0.0	 0.0	 1	    1.00000	    0.00000	 13.8	 2	    1.10000	    0.90000;
	77	 2	 0.0	 0.0	 0.0	 0.0	 1	    1.00000	    0.00000	 13.8	 2	    1.10000	    0.90000;
	78	 2	 0.0	 0.0	 0.0	 0.0	 1	    1.00000	    0.00000	 13.8	 2	    1.10000	    0.90000;
	79	 2	 0.0	 0.0	 0.0	 0.0	 1	    1.00000	    0.00000	 13.8	 2	    1.10000	    0.90000;
	80	 1	 2.46	 0.42	 0.0	 0.0	 1	    1.00000	    0.00000	 115.0	 5	    1.10000	    0.90000;
	81	 1	 0.0	 0.0	 0.0	 0.0	 1	    1.00000	    0.00000	 230.0	 6	    1.10000	    0.90000;
	82	 1	 12.65	 2.17	 0.0	 0.0	 1	    1.00000	    0.00000	 115.0	 6	    1.10000	    0.90000;
	83	 1	 5.23	 0.89	 0.0	 0.0	 1	    1.00000	    0.00000	 115.0	 7	    1.10000	    0.90000;
	84	 1	 6.24	 1.07	 0.0	 0.0	 1	    1.00000	    0.00000	 115.0	 2	    1.10000	    0.90000;
	85	 1	 8.04	 1.38	 0.0	 0.0	 1	    1.00000	    0.00000	 115.0	 4	    1.10000	    0.90000;
	86	 1	 13.73	 2.35	 0.0	 0.0	 1	    1.00000	    0.00000	 115.0	 2	    1.10000	    0.90000;
	87	 1	 0.0	 0.0	 0.0	 0.0	 1	    1.00000	    0.00000	 230.0	 3	    1.10000	    0.90000;
	88	 1	 82.13	 14.06	 0.0	 0.0	 1	    1.00000	    0.00000	 115.0	 3	    1.10000	    0.90000;
	89	 1	 104.62	 17.91	 0.0	 0.0	 1	    1.00000	    0.00000	 115.0	 7	    1.10000	    0.90000;
	90	 2	 0.0	 0.0	 0.0	 0.0	 1	    1.00000	    0.00000	 13.8	 7	    1.10000	    0.90000;
	91	 2	 0.0	 0.0	 0.0	 0.0	 1	    1.00000	    0.00000	 13.8	 7	    1.10000	    0.90000;
	92	 2	 0.0	 0.0	 0.0	 0.0	 1	    1.00000	    0.00000	 13.8	 7	    1.10000	    0.90000;
	93	 1	 5.09	 0.87	 0.0	 0.0	 1	    1.00000	    0.00000	 115.0	 4	    1.10000	    0.90000;
	94	 2	 0.0	 0.0	 0.0	 0.0	 1	    1.00000	    0.00000	 13.8	 4	    1.10000	    0.90000;
	95	 1	 4.99	 0.85	 0.0	 30.0	 1	    1.00000	    0.00000	 115.0	 7	    1.10000	    0.90000;
	96	 1	 4.93	 0.84	 0.0	 0.0	 1	    1.00000	    0.00000	 115.0	 7	    1.10000	    0.90000;
	97	 1	 12.20	 2.09	 0.0	 0.0	 1	    1.00000	    0.00000	 115.0	 2	    1.10000	    0.90000;
	98	 1	 0.0	 0.0	 0.0	 0.0	 1	    1.00000	    0.00000	 230.0	 2	    1.10000	    0.90000;
	99	 1	 20.26	 3.47	 0.0	 0.0	 1	    1.00000	    0.00000	 115.0	 2	    1.10000	    0.90000;
	100	 1	 62.24	 10.66	 0.0	 80.0	 1	    1.00000	    0.00000	 115.0	 5	    1.10000	    0.90000;
	101	 1	 0.87	 0.15	 0.0	 0.0	 1	    1.00000	    0.00000	 115.0	 2	    1.10000	    0.90000;
	102	 1	 0.0	 0.0	 0.0	 0.0	 1	    1.00000	    0.00000	 230.0	 7	    1.10000	    0.90000;
	103	 1	 0.0	 0.0	 0.0	 0.0	 1	    1.00000	    0.00000	 115.0	 7	    1.10000	    0.90000;
	104	 2	 0.0	 0.0	 0.0	 0.0	 1	    1.00000	    0.00000	 13.8	 7	    1.10000	    0.90000;
	105	 2	 0.0	 0.0	 0.0	 0.0	 1	    1.00000	    0.00000	 13.8	 7	    1.10000	    0.90000;
	106	 1	 3.43	 0.59	 0.0	 0.0	 1	    1.00000	    0.00000	 115.0	 7	    1.10000	    0.90000;
	107	 1	 87.49	 14.98	 0.0	 0.0	 1	    1.00000	    0.00000	 115.0	 7	    1.10000	    0.90000;
	108	 1	 15.68	 2.68	 0.0	 0.0	 1	    1.00000	    0.00000	 115.0	 2	    1.10000	    0.90000;
	109	 1	 8.59	 1.47	 0.0	 0.0	 1	    1.00000	    0.00000	 115.0	 4	    1.10000	    0.90000;
	110	 1	 18.08	 3.09	 0.0	 0.0	 1	    1.00000	    0.00000	 115.0	 2	    1.10000	    0.90000;
	111	 1	 14.68	 2.51	 0.0	 0.0	 1	    1.00000	    0.00000	 115.0	 5	    1.10000	    0.90000;
	112	 1	 0.0	 0.0	 0.0	 0.0	 1	    1.00000	    0.00000	 230.0	 7	    1.10000	    0.90000;
	113	 1	 0.0	 0.0	 0.0	 0.0	 1	    1.00000	    0.00000	 115.0	 7	    1.10000	    0.90000;
	114	 2	 0.0	 0.0	 0.0	 0.0	 1	    1.00000	    0.00000	 13.8	 7	    1.10000	    0.90000;
	115	 2	 0.0	 0.0	 0.0	 0.0	 1	    1.00000	    0.00000	 13.8	 7	    1.10000	    0.90000;
	116	 1	 0.0	 0.0	 0.0	 0.0	 1	    1.00000	    0.00000	 230.0	 2	    1.10000	    0.90000;
	117	 1	 56.73	 9.71	 0.0	 0.0	 1	    1.00000	    0.00000	 115.0	 2	    1.10000	    0.90000;
	118	 1	 6.56	 1.12	 0.0	 0.0	 1	    1.00000	    0.00000	 115.0	 2	    1.10000	    0.90000;
	119	 1	 29.21	 5.00	 0.0	 0.0	 1	    1.00000	    0.00000	 115.0	 2	    1.10000	    0.90000;
	120	 1	 3.00	 0.51	 0.0	 0.0	 1	    1.00000	    0.00000	 115.0	 4	    1.10000	    0.90000;
	121	 1	 0.0	 0.0	 0.0	 0.0	 1	    1.00000	    0.00000	 230.0	 7	    1.10000	    0.90000;
	122	 1	 25.70	 4.40	 0.0	 0.0	 1	    1.00000	    0.00000	 115.0	 7	    1.10000	    0.90000;
	123	 1	 0.0	 0.0	 0.0	 0.0	 1	    1.00000	    0.00000	 230.0	 2	    1.10000	    0.90000;
	124	 1	 0.0	 0.0	 0.0	 0.0	 1	    1.00000	    0.00000	 115.0	 2	    1.10000	    0.90000;
	125	 2	 0.0	 0.0	 0.0	 0.0	 1	    1.00000	    0.00000	 13.8	 2	    1.10000	    0.90000;
	126	 2	 0.0	 0.0	 0.0	 0.0	 1	    1.00000	    0.00000	 13.8	 2	    1.10000	    0.90000;
	127	 2	 0.0	 0.0	 0.0	 0.0	 1	    1.00000	    0.00000	 13.8	 2	    1.10000	    0.90000;
	128	 1	 0.0	 0.0	 0.0	 0.0	 1	    1.00000	    0.00000	 230.0	 7	    1.10000	    0.90000;
	129	 1	 128.57	 22.01	 0.0	 0.0	 1	    1.00000	    0.00000	 115.0	 7	    1.10000	    0.90000;
	130	 1	 7.32	 1.25	 0.0	 0.0	 1	    1.00000	    0.00000	 115.0	 7	    1.10000	    0.90000;
	131	 1	 50.35	 8.62	 0.0	 0.0	 1	    1.00000	    0.00000	 115.0	 2	    1.10000	    0.90000;
	132	 1	 44.88	 7.68	 0.0	 0.0	 1	    1.00000	    0.00000	 115.0	 2	    1.10000	    0.90000;
	133	 1	 0.0	 0.0	 0.0	 0.0	 1	    1.00000	    0.00000	 230.0	 2	    1.10000	    0.90000;
	134	 1	 0.0	 0.0	 0.0	 0.0	 1	    1.00000	    0.00000	 115.0	 2	    1.10000	    0.90000;
	135	 2	 0.0	 0.0	 0.0	 0.0	 1	    1.00000	    0.00000	 13.8	 2	    1.10000	    0.90000;
	136	 2	 0.0	 0.0	 0.0	 0.0	 1	    1.00000	    0.00000	 13.8	 2	    1.10000	    0.90000;
	137	 1	 1.93	 0.33	 0.0	 0.0	 1	    1.00000	    0.00000	 115.0	 4	    1.10000	    0.90000;
	138	 1	 3.48	 0.60	 0.0	 0.0	 1	    1.00000	    0.00000	 115.0	 6	    1.10000	    0.90000;
	139	 1	 11.39	 1.95	 0.0	 0.0	 1	    1.00000	    0.00000	 115.0	 2	    1.10000	    0.90000;
	140	 1	 13.67	 2.34	 0.0	 0.0	 1	    1.00000	    0.00000	 115.0	 2	    1.10000	    0.90000;
	141	 1	 2.36	 0.41	 0.0	 0.0	 1	    1.00000	    0.00000	 115.0	 2	    1.10000	    0.90000;
	142	 1	 62.02	 10.62	 0.0	 0.0	 1	    1.00000	    0.00000	 115.0	 2	    1.10000	    0.90000;
	143	 1	 44.58	 7.63	 0.0	 0.0	 1	    1.00000	    0.00000	 115.0	 5	    1.10000	    0.90000;
	144	 1	 15.06	 2.58	 0.0	 0.0	 1	    1.00000	    0.00000	 115.0	 2	    1.10000	    0.90000;
	145	 1	 29.20	 5.00	 0.0	 0.0	 1	    1.00000	    0.00000	 115.0	 3	    1.10000	    0.90000;
	146	 1	 0.0	 0.0	 0.0	 0.0	 1	    1.00000	    0.00000	 115.0	 7	    1.10000	    0.90000;
	147	 2	 0.0	 0.0	 0.0	 0.0	 1	    1.00000	    0.00000	 13.8	 7	    1.10000	    0.90000;
	148	 1	 53.30	 9.13	 0.0	 0.0	 1	    1.00000	    0.00000	 115.0	 2	    1.10000	    0.90000;
	149	 1	 0.0	 0.0	 0.0	 0.0	 1	    1.00000	    0.00000	 230.0	 3	    1.10000	    0.90000;
	150	 1	 0.0	 0.0	 0.0	 0.0	 1	    1.00000	    0.00000	 115.0	 3	    1.10000	    0.90000;
	151	 2	 0.0	 0.0	 0.0	 0.0	 1	    1.00000	    0.00000	 13.8	 3	    1.10000	    0.90000;
	152	 2	 0.0	 0.0	 0.0	 0.0	 1	    1.00000	    0.00000	 13.8	 3	    1.10000	    0.90000;
	153	 2	 0.0	 0.0	 0.0	 0.0	 1	    1.00000	    0.00000	 13.8	 3	    1.10000	    0.90000;
	154	 2	 0.0	 0.0	 0.0	 0.0	 1	    1.00000	    0.00000	 13.8	 3	    1.10000	    0.90000;
	155	 2	 0.0	 0.0	 0.0	 0.0	 1	    1.00000	    0.00000	 13.8	 3	    1.10000	    0.90000;
	156	 1	 0.0	 0.0	 0.0	 0.0	 1	    1.00000	    0.00000	 230.0	 2	    1.10000	    0.90000;
	157	 1	 24.57	 4.21	 0.0	 0.0	 1	    1.00000	    0.00000	 115.0	 2	    1.10000	    0.90000;
	158	 1	 14.93	 2.56	 0.0	 0.0	 1	    1.00000	    0.00000	 115.0	 4	    1.10000	    0.90000;
	159	 1	 2.31	 0.40	 0.0	 0.0	 1	    1.00000	    0.00000	 115.0	 4	    1.10000	    0.90000;
	160	 1	 0.0	 0.0	 0.0	 0.0	 1	    1.00000	    0.00000	 115.0	 4	    1.10000	    0.90000;
	161	 2	 0.0	 0.0	 0.0	 0.0	 1	    1.00000	    0.00000	 13.8	 4	    1.10000	    0.90000;
	162	 1	 2.41	 0.41	 0.0	 0.0	 1	    1.00000	    0.00000	 115.0	 2	    1.10000	    0.90000;
	163	 1	 76.24	 13.05	 0.0	 0.0	 1	    1.00000	    0.00000	 115.0	 5	    1.10000	    0.90000;
	164	 2	 0.0	 0.0	 0.0	 0.0	 1	    1.00000	    0.00000	 13.8	 5	    1.10000	    0.90000;
	165	 2	 0.0	 0.0	 0.0	 0.0	 1	    1.00000	    0.00000	 13.8	 5	    1.10000	    0.90000;
	166	 2	 0.0	 0.0	 0.0	 0.0	 1	    1.00000	    0.00000	 13.8	 5	    1.10000	    0.90000;
	167	 2	 0.0	 0.0	 0.0	 0.0	 1	    1.00000	    0.00000	 13.8	 5	    1.10000	    0.90000;
	168	 2	 0.0	 0.0	 0.0	 0.0	 1	    1.00000	    0.00000	 13.8	 5	    1.10000	    0.90000;
	169	 2	 0.0	 0.0	 0.0	 0.0	 1	    1.00000	    0.00000	 13.8	 5	    1.10000	    0.90000;
	170	 2	 0.0	 0.0	 0.0	 0.0	 1	    1.00000	    0.00000	 13.8	 5	    1.10000	    0.90000;
	171	 1	 13.22	 2.26	 0.0	 0.0	 1	    1.00000	    0.00000	 115.0	 6	    1.10000	    0.90000;
	172	 1	 8.96	 1.53	 0.0	 0.0	 1	    1.00000	    0.00000	 115.0	 5	    1.10000	    0.90000;
	173	 1	 14.50	 2.48	 0.0	 0.0	 1	    1.00000	    0.00000	 115.0	 5	    1.10000	    0.90000;
	174	 1	 4.61	 0.79	 0.0	 0.0	 1	    1.00000	    0.00000	 115.0	 5	    1.10000	    0.90000;
	175	 1	 12.17	 2.08	 0.0	 0.0	 1	    1.00000	    0.00000	 115.0	 5	    1.10000	    0.90000;
	176	 1	 31.64	 5.42	 0.0	 0.0	 1	    1.00000	    0.00000	 115.0	 3	    1.10000	    0.90000;
	177	 1	 18.79	 3.22	 0.0	 0.0	 1	    1.00000	    0.00000	 115.0	 7	    1.10000	    0.90000;
	178	 1	 0.0	 0.0	 0.0	 0.0	 1	    1.00000	    0.00000	 230.0	 5	    1.10000	    0.90000;
	179	 1	 39.30	 6.73	 0.0	 0.0	 1	    1.00000	    0.00000	 115.0	 5	    1.10000	    0.90000;
	180	 1	 12.88	 2.21	 0.0	 0.0	 1	    1.00000	    0.00000	 115.0	 5	    1.10000	    0.90000;
	181	 1	 79.87	 13.67	 0.0	 0.0	 1	    1.00000	    0.00000	 115.0	 4	    1.10000	    0.90000;
	182	 2	 0.0	 0.0	 0.0	 0.0	 1	    1.00000	    0.00000	 13.8	 4	    1.10000	    0.90000;
	183	 2	 0.0	 0.0	 0.0	 0.0	 1	    1.00000	    0.00000	 13.8	 4	    1.10000	    0.90000;
	184	 1	 17.79	 3.05	 0.0	 0.0	 1	    1.00000	    0.00000	 115.0	 5	    1.10000	    0.90000;
	185	 1	 17.96	 3.07	 0.0	 0.0	 1	    1.00000	    0.00000	 115.0	 3	    1.10000	    0.90000;
	186	 1	 3.50	 0.60	 0.0	 0.0	 1	    1.00000	    0.00000	 115.0	 2	    1.10000	    0.90000;
	187	 1	 0.0	 0.0	 0.0	 0.0	 1	    1.00000	    0.00000	 230.0	 7	    1.10000	    0.90000;
	188	 1	 0.0	 0.0	 0.0	 0.0	 1	    1.00000	    0.00000	 115.0	 7	    1.10000	    0.90000;
	189	 3	 0.0	 0.0	 0.0	 0.0	 1	    1.00000	    0.00000	 13.8	 7	    1.10000	    0.90000;
	190	 1	 27.95	 4.78	 0.0	 0.0	 1	    1.00000	    0.00000	 115.0	 6	    1.10000	    0.90000;
	191	 1	 12.03	 2.06	 0.0	 0.0	 1	    1.00000	    0.00000	 115.0	 5	    1.10000	    0.90000;
	192	 1	 87.79	 15.03	 0.0	 0.0	 1	    1.00000	    0.00000	 115.0	 7	    1.10000	    0.90000;
	193	 1	 36.60	 6.27	 0.0	 0.0	 1	    1.00000	    0.00000	 115.0	 2	    1.10000	    0.90000;
	194	 1	 62.54	 10.71	 0.0	 50.0	 1	    1.00000	    0.00000	 115.0	 3	    1.10000	    0.90000;
	195	 1	 0.0	 0.0	 0.0	 0.0	 1	    1.00000	    0.00000	 115.0	 6	    1.10000	    0.90000;
	196	 2	 0.0	 0.0	 0.0	 0.0	 1	    1.00000	    0.00000	 13.8	 6	    1.10000	    0.90000;
	197	 2	 0.0	 0.0	 0.0	 0.0	 1	    1.00000	    0.00000	 13.8	 6	    1.10000	    0.90000;
	198	 1	 8.94	 1.53	 0.0	 0.0	 1	    1.00000	    0.00000	 115.0	 2	    1.10000	    0.90000;
	199	 1	 7.09	 1.21	 0.0	 0.0	 1	    1.00000	    0.00000	 115.0	 6	    1.10000	    0.90000;
	200	 1	 15.55	 2.66	 0.0	 0.0	 1	    1.00000	    0.00000	 115.0	 4	    1.10000	    0.90000;
];

%% generator data
%	bus	Pg	Qg	Qmax	Qmin	Vg	mBase	status	Pmax	Pmin
mpc.gen = [
	49	 11.84	 0.0	 12.0	 -12.0	 1.0	 5.44	 1	 23	 0.68; % NG
	50	 9.34	 0.0	 9.0	 -9.0	 1.0	 5.44	 1	 18	 0.68; % NG
	51	 13.34	 0.0	 13.0	 -13.0	 1.0	 5.44	 1	 26	 0.68; % NG
	52	 14.84	 0.0	 15.0	 -15.0	 1.0	 5.44	 1	 29	 0.68; % NG
	53	 16.68	 0.0	 16.0	 -16.0	 1.0	 10.88	 1	 32	 1.36; % NG
	65	 239.125	 0.0	 218.0	 -218.0	 1.0	 180.48	 1	 435	 43.25; % NG
	67	 11.8525	 0.0	 12.0	 -12.0	 1.0	 5.64	 1	 23	 0.705; % NG
	68	 66.595	 0.0	 65.0	 -65.0	 1.0	 33.5	 1	 129	 4.19; % PEL
	69	 32.595	 0.0	 31.0	 -31.0	 1.0	 33.5	 1	 61	 4.19; % PEL
	70	 19.595	 0.0	 18.0	 -18.0	 1.0	 33.5	 1	 35	 4.19; % NG
	71	 34.595	 0.0	 33.0	 -33.0	 1.0	 33.5	 1	 65	 4.19; % NG
	72	 75.595	 0.0	 74.0	 -74.0	 1.0	 33.5	 1	 147	 4.19; % NG
	73	 42.595	 0.0	 41.0	 -41.0	 1.0	 33.5	 1	 81	 4.19; % NG
	76	 21.8	 0.0	 22.0	 -22.0	 1.0	 4.8	 1	 43	 0.6; % NG
	77	 4.18	 0.0	 4.0	 -4.0	 1.0	 2.88	 1	 8	 0.36; % PEL
	78	 0.0	 0.0	 23.0	 -23.0	 1.0	 21.6	 0	 45	 2.7; % PEL
	79	 0.0	 0.0	 9.16	 -6.0	 1.0	 21.6	 0	 12	 2.7; % PEL
	90	 7.24	 0.0	 7.0	 -7.0	 1.0	 3.84	 1	 14	 0.48; % NG
	91	 8.875	 0.0	 9.0	 -9.0	 1.0	 6.0	 1	 17	 0.75; % NG
	92	 0.0	 0.0	 3.21	 -3.0	 1.0	 7.56	 0	 5	 0.945; % PEL
	94	 37.85	 0.0	 37.0	 -37.0	 1.0	 21.6	 1	 73	 2.7; % PEL
	104	 86.9	 0.0	 70.0	 -70.0	 1.0	 118.8	 1	 140	 33.8; % PEL
	105	 142.7	 0.0	 104.0	 -104.0	 1.0	 237.6	 1	 208	 77.4; % NG
	114	 8.35	 0.0	 8.0	 -8.0	 1.0	 2.04	 1	 16	 0.7; % PEL
	115	 140.375	 0.0	 107.0	 -107.0	 1.0	 180.0	 1	 214	 66.75; % NG
	125	 95.255	 0.0	 86.0	 -86.0	 1.0	 156.06	 1	 171	 19.51; % COW
	126	 119.755	 0.0	 110.0	 -110.0	 1.0	 156.06	 1	 220	 19.51; % NG
	127	 102.755	 0.0	 93.0	 -93.0	 1.0	 156.06	 1	 186	 19.51; % NG
	135	 270.98	 0.0	 238.0	 -238.0	 1.0	 535.68	 1	 475	 66.96; % COW
	136	 283.98	 0.0	 251.0	 -251.0	 1.0	 535.68	 1	 501	 66.96; % NG
	147	 155.1	 0.0	 132.0	 -132.0	 1.0	 120.6	 1	 264	 46.2; % NG
	151	 8.905	 0.0	 9.0	 -9.0	 1.0	 6.48	 1	 17	 0.81; % COW
	152	 51.2925	 0.0	 46.0	 -46.0	 1.0	 92.67	 1	 91	 11.585; % NG
	153	 120.2925	 0.0	 115.0	 -115.0	 1.0	 92.67	 1	 229	 11.585; % COW
	154	 74.7925	 0.0	 69.0	 -69.0	 1.0	 92.67	 1	 138	 11.585; % NG
	155	 93.2925	 0.0	 88.0	 -88.0	 1.0	 92.67	 1	 175	 11.585; % NG
	161	 0.0	 0.0	 107.0	 -107.0	 1.0	 166.32	 0	 213	 20.79; % NG
	164	 0.0	 0.0	 19.0	 -19.0	 1.0	 14.4	 0	 37	 1.8; % COW
	165	 0.0	 0.0	 53.0	 -53.0	 1.0	 31.2	 0	 105	 3.9; % NG
	166	 0.0	 0.0	 269.0	 -269.0	 1.0	 11.28	 0	 537	 1.41; % COW
	167	 23.705	 0.0	 23.0	 -23.0	 1.0	 11.28	 1	 46	 1.41; % NG
	168	 0.0	 0.0	 34.0	 -34.0	 1.0	 11.28	 0	 68	 1.41; % NG
	169	 0.0	 0.0	 32.0	 -32.0	 1.0	 11.28	 0	 64	 1.41; % NG
	170	 8.705	 0.0	 8.0	 -8.0	 1.0	 11.28	 1	 16	 1.41; % NG
	182	 70.8125	 0.0	 70.0	 -70.0	 1.0	 21.0	 1	 139	 2.625; % NG
	183	 51.995	 0.0	 50.0	 -50.0	 1.0	 31.92	 1	 100	 3.99; % NG
	189	 927.6875	 0.0	 885.0	 -885.0	 1.0	 682.98	 1	 1770	 85.375; % COW
	196	 0.0	 0.0	 34.36	 -17.0	 1.0	 81.0	 0	 34	 10.125; % NG
	197	 0.0	 0.0	 119.0	 -119.0	 1.0	 81.0	 0	 238	 10.125; % NG
];

%% generator cost data
%	2	startup	shutdown	n	c(n-1)	...	c0
mpc.gencost = [
	2	 0.0	 0.0	 3	   0.002000	  19.000000	 236.120000; % NG
	2	 0.0	 0.0	 3	   0.002000	  19.000000	 236.120000; % NG
	2	 0.0	 0.0	 3	   0.002000	  19.000000	 236.120000; % NG
	2	 0.0	 0.0	 3	   0.002000	  19.000000	 236.120000; % NG
	2	 0.0	 0.0	 3	   0.002000	  19.000000	 236.240000; % NG
	2	 0.0	 0.0	 3	   0.000000	   0.000000	   0.000000; % NG
	2	 0.0	 0.0	 3	   0.002000	  19.000000	 236.130000; % NG
	2	 0.0	 0.0	 3	   0.002000	  19.000000	 236.740000; % PEL
	2	 0.0	 0.0	 3	   0.002000	  19.000000	 236.740000; % PEL
	2	 0.0	 0.0	 3	   0.002000	  19.000000	 236.740000; % NG
	2	 0.0	 0.0	 3	   0.002000	  19.000000	 236.740000; % NG
	2	 0.0	 0.0	 3	   0.002000	  19.000000	 236.740000; % NG
	2	 0.0	 0.0	 3	   0.002000	  19.000000	 236.740000; % NG
	2	 0.0	 0.0	 3	   0.002000	  23.157000	 606.000000; % NG
	2	 0.0	 0.0	 3	   0.002000	  23.146000	 603.600000; % PEL
	2	 0.0	 0.0	 3	   0.002000	  23.252000	 627.000000; % PEL
	2	 0.0	 0.0	 3	   0.002000	  23.252000	 627.000000; % PEL
	2	 0.0	 0.0	 3	   0.002000	  23.152000	 604.800000; % NG
	2	 0.0	 0.0	 3	   0.002000	  23.164000	 607.500000; % NG
	2	 0.0	 0.0	 3	   0.002000	  23.173000	 609.450000; % PEL
	2	 0.0	 0.0	 3	   0.002000	  19.000000	 236.480000; % PEL
	2	 0.0	 0.0	 3	   0.000000	   0.000000	   0.000000; % PEL
	2	 0.0	 0.0	 3	   0.000000	   0.000000	   0.000000; % NG
	2	 0.0	 0.0	 3	   0.000000	   0.000000	   0.000000; % PEL
	2	 0.0	 0.0	 3	   0.000000	   0.000000	   0.000000; % NG
	2	 0.0	 0.0	 3	   0.002000	  19.000000	 610.140000; % COW
	2	 0.0	 0.0	 3	   0.002000	  19.000000	 610.140000; % NG
	2	 0.0	 0.0	 3	   0.002000	  19.000000	 610.140000; % NG
	2	 0.0	 0.0	 3	   0.002000	  19.000000	 1261.330000; % COW
	2	 0.0	 0.0	 3	   0.002000	  19.000000	 1261.330000; % NG
	2	 0.0	 0.0	 3	   0.000000	   0.000000	   0.000000; % NG
	2	 0.0	 0.0	 3	   0.002000	  19.000000	 236.140000; % COW
	2	 0.0	 0.0	 3	   0.002000	  19.000000	 253.010000; % NG
	2	 0.0	 0.0	 3	   0.002000	  19.000000	 253.010000; % COW
	2	 0.0	 0.0	 3	   0.002000	  19.000000	 253.010000; % NG
	2	 0.0	 0.0	 3	   0.002000	  19.000000	 253.010000; % NG
	2	 0.0	 0.0	 3	   0.002000	  24.070000	 807.900000; % NG
	2	 0.0	 0.0	 3	   0.002000	  23.211000	 618.000000; % COW
	2	 0.0	 0.0	 3	   0.002000	  23.306000	 639.000000; % NG
	2	 0.0	 0.0	 3	   0.002000	  23.194000	 614.100000; % COW
	2	 0.0	 0.0	 3	   0.002000	  23.194000	 614.100000; % NG
	2	 0.0	 0.0	 3	   0.002000	  23.194000	 614.100000; % NG
	2	 0.0	 0.0	 3	   0.002000	  23.194000	 614.100000; % NG
	2	 0.0	 0.0	 3	   0.002000	  23.194000	 614.100000; % NG
	2	 0.0	 0.0	 3	   0.002000	  19.000000	 236.470000; % NG
	2	 0.0	 0.0	 3	   0.002000	  19.000000	 236.710000; % NG
	2	 0.0	 0.0	 3	   0.000000	   6.710000	 1272.130000; % COW
	2	 0.0	 0.0	 3	   0.002000	  23.588000	 701.250000; % NG
	2	 0.0	 0.0	 3	   0.002000	  23.588000	 701.250000; % NG
];

%% branch data
%	fbus	tbus	r	x	b	rateA	rateB	rateC	ratio	angle	status	angmin	angmax
mpc.branch = [
	2	 1	 0.000673	 0.003339	 0.0	 100.0	 100.0	 100.0	 0.0	 0.0	 1	 -30.0	 30.0;
	1	 119	 0.018542	 0.119758	 0.02285	 221.1	 221.1	 221.1	 0.0	 0.0	 1	 -30.0	 30.0;
	124	 1	 0.005615	 0.036268	 0.00692	 221.1	 221.1	 221.1	 0.0	 0.0	 1	 -30.0	 30.0;
	193	 1	 0.004258	 0.027501	 0.00525	 221.1	 221.1	 221.1	 0.0	 0.0	 1	 -30.0	 30.0;
	4	 3	 0.000573	 0.003303	 0.0	 100.0	 100.0	 100.0	 0.0	 0.0	 1	 -30.0	 30.0;
	57	 3	 0.008505	 0.058098	 0.00988	 221.1	 221.1	 221.1	 0.0	 0.0	 1	 -30.0	 30.0;
	3	 137	 0.005889	 0.038035	 0.00726	 221.1	 221.1	 221.1	 0.0	 0.0	 1	 -30.0	 30.0;
	6	 5	 0.000694	 0.003337	 0.0	 100.0	 100.0	 100.0	 0.0	 0.0	 1	 -30.0	 30.0;
	48	 5	 0.006246	 0.043513	 0.00711	 221.1	 221.1	 221.1	 0.0	 0.0	 1	 -30.0	 30.0;
	5	 64	 0.007877	 0.054875	 0.00897	 221.1	 221.1	 221.1	 0.0	 0.0	 1	 -30.0	 30.0;
	8	 7	 0.000634	 0.003189	 0.0	 100.0	 100.0	 100.0	 0.0	 0.0	 1	 -30.0	 30.0;
	7	 86	 0.003756	 0.024259	 0.00463	 221.1	 221.1	 221.1	 0.0	 0.0	 1	 -30.0	 30.0;
	7	 101	 0.003597	 0.023232	 0.00443	 221.1	 221.1	 221.1	 0.0	 0.0	 1	 -30.0	 30.0;
	7	 148	 0.008667	 0.05598	 0.01068	 221.1	 221.1	 221.1	 0.0	 0.0	 1	 -30.0	 30.0;
	10	 9	 0.000585	 0.003967	 0.0	 100.0	 100.0	 100.0	 0.0	 0.0	 1	 -30.0	 30.0;
	9	 124	 0.008069	 0.055123	 0.00938	 221.1	 221.1	 221.1	 0.0	 0.0	 1	 -30.0	 30.0;
	131	 9	 0.004139	 0.026732	 0.0051	 221.1	 221.1	 221.1	 0.0	 0.0	 1	 -30.0	 30.0;
	9	 141	 0.004446	 0.03097	 0.00506	 221.1	 221.1	 221.1	 0.0	 0.0	 1	 -30.0	 30.0;
	9	 193	 0.003695	 0.025244	 0.00429	 221.1	 221.1	 221.1	 0.0	 0.0	 1	 -30.0	 30.0;
	12	 11	 0.000534	 0.003533	 0.0	 100.0	 100.0	 100.0	 0.0	 0.0	 1	 -30.0	 30.0;
	13	 11	 0.000619	 0.003606	 0.0	 100.0	 100.0	 100.0	 0.0	 0.0	 1	 -30.0	 30.0;
	11	 15	 0.010408	 0.06722	 0.01282	 221.1	 221.1	 221.1	 0.0	 0.0	 1	 -30.0	 30.0;
	11	 93	 0.018394	 0.128141	 0.02095	 221.1	 221.1	 221.1	 0.0	 0.0	 1	 -30.0	 30.0;
	158	 11	 0.008519	 0.058199	 0.0099	 221.1	 221.1	 221.1	 0.0	 0.0	 1	 -30.0	 30.0;
	15	 14	 0.000637	 0.027526	 0.0	 300.0	 300.0	 300.0	 1.0	 0.0	 1	 -30.0	 30.0;
	14	 121	 0.007013	 0.050098	 0.09134	 402.36	 402.36	 402.36	 0.0	 0.0	 1	 -30.0	 30.0;
	14	 149	 0.009133	 0.065244	 0.11895	 402.36	 402.36	 402.36	 0.0	 0.0	 1	 -30.0	 30.0;
	16	 15	 0.000553	 0.0032	 0.0	 100.0	 100.0	 100.0	 0.0	 0.0	 1	 -30.0	 30.0;
	18	 17	 0.000503	 0.003926	 0.0	 100.0	 100.0	 100.0	 0.0	 0.0	 1	 -30.0	 30.0;
	19	 17	 0.000514	 0.003079	 0.0	 100.0	 100.0	 100.0	 0.0	 0.0	 1	 -30.0	 30.0;
	20	 17	 0.000623	 0.003339	 0.0	 100.0	 100.0	 100.0	 0.0	 0.0	 1	 -30.0	 30.0;
	21	 17	 0.00062	 0.00394	 0.0	 100.0	 100.0	 100.0	 0.0	 0.0	 1	 -30.0	 30.0;
	109	 17	 0.009789	 0.068198	 0.01115	 221.1	 221.1	 221.1	 0.0	 0.0	 1	 -30.0	 30.0;
	17	 120	 0.010316	 0.070473	 0.01199	 221.1	 221.1	 221.1	 0.0	 0.0	 1	 -30.0	 30.0;
	23	 22	 0.000616	 0.003222	 0.0	 100.0	 100.0	 100.0	 0.0	 0.0	 1	 -30.0	 30.0;
	24	 22	 0.000687	 0.003067	 0.0	 100.0	 100.0	 100.0	 0.0	 0.0	 1	 -30.0	 30.0;
	22	 27	 0.011379	 0.073494	 0.01402	 221.1	 221.1	 221.1	 0.0	 0.0	 1	 -30.0	 30.0;
	158	 22	 0.012701	 0.086769	 0.01476	 221.1	 221.1	 221.1	 0.0	 0.0	 1	 -30.0	 30.0;
	26	 25	 0.00061	 0.003071	 0.0	 100.0	 100.0	 100.0	 0.0	 0.0	 1	 -30.0	 30.0;
	25	 64	 0.007643	 0.053244	 0.0087	 221.1	 221.1	 221.1	 0.0	 0.0	 1	 -30.0	 30.0;
	199	 25	 0.009909	 0.064003	 0.01221	 221.1	 221.1	 221.1	 0.0	 0.0	 1	 -30.0	 30.0;
	28	 27	 0.000587	 0.003964	 0.0	 100.0	 100.0	 100.0	 0.0	 0.0	 1	 -30.0	 30.0;
	27	 93	 0.025172	 0.175362	 0.02867	 221.1	 221.1	 221.1	 0.0	 0.0	 1	 -30.0	 30.0;
	27	 158	 0.020429	 0.131945	 0.02517	 221.1	 221.1	 221.1	 0.0	 0.0	 1	 -30.0	 30.0;
	30	 29	 0.000694	 0.003131	 0.0	 100.0	 100.0	 100.0	 0.0	 0.0	 1	 -30.0	 30.0;
	124	 29	 0.005561	 0.038742	 0.00633	 221.1	 221.1	 221.1	 0.0	 0.0	 1	 -30.0	 30.0;
	29	 140	 0.007895	 0.055004	 0.00899	 221.1	 221.1	 221.1	 0.0	 0.0	 1	 -30.0	 30.0;
	32	 31	 0.000667	 0.003884	 0.0	 100.0	 100.0	 100.0	 0.0	 0.0	 1	 -30.0	 30.0;
	33	 31	 0.000528	 0.003639	 0.0	 100.0	 100.0	 100.0	 0.0	 0.0	 1	 -30.0	 30.0;
	177	 31	 0.008406	 0.05856	 0.00957	 221.1	 221.1	 221.1	 0.0	 0.0	 1	 -30.0	 30.0;
	192	 31	 0.008088	 0.05525	 0.0094	 221.1	 221.1	 221.1	 0.0	 0.0	 1	 -30.0	 30.0;
	35	 34	 0.000575	 0.003674	 0.0	 100.0	 100.0	 100.0	 0.0	 0.0	 1	 -30.0	 30.0;
	34	 54	 0.006268	 0.042819	 0.00729	 221.1	 221.1	 221.1	 0.0	 0.0	 1	 -30.0	 30.0;
	34	 137	 0.006911	 0.044639	 0.00852	 221.1	 221.1	 221.1	 0.0	 0.0	 1	 -30.0	 30.0;
	37	 36	 0.000552	 0.003328	 0.0	 100.0	 100.0	 100.0	 0.0	 0.0	 1	 -30.0	 30.0;
	38	 36	 0.00067	 0.003511	 0.0	 100.0	 100.0	 100.0	 0.0	 0.0	 1	 -30.0	 30.0;
	58	 36	 0.010889	 0.07439	 0.01266	 221.1	 221.1	 221.1	 0.0	 0.0	 1	 -30.0	 30.0;
	83	 36	 0.009615	 0.066986	 0.01095	 221.1	 221.1	 221.1	 0.0	 0.0	 1	 -30.0	 30.0;
	40	 39	 0.000505	 0.003103	 0.0	 100.0	 100.0	 100.0	 0.0	 0.0	 1	 -30.0	 30.0;
	39	 85	 0.008702	 0.060625	 0.00991	 221.1	 221.1	 221.1	 0.0	 0.0	 1	 -30.0	 30.0;
	159	 39	 0.007332	 0.05108	 0.00835	 221.1	 221.1	 221.1	 0.0	 0.0	 1	 -30.0	 30.0;
	41	 100	 0.004595	 0.029676	 0.00566	 221.1	 221.1	 221.1	 0.0	 0.0	 1	 -30.0	 30.0;
	41	 163	 0.003165	 0.021623	 0.00368	 221.1	 221.1	 221.1	 0.0	 0.0	 1	 -30.0	 30.0;
	41	 180	 0.009408	 0.060766	 0.01159	 221.1	 221.1	 221.1	 0.0	 0.0	 1	 -30.0	 30.0;
	44	 42	 0.012256	 0.085383	 0.01396	 221.1	 221.1	 221.1	 0.0	 0.0	 1	 -30.0	 30.0;
	181	 42	 0.008008	 0.05579	 0.00912	 221.1	 221.1	 221.1	 0.0	 0.0	 1	 -30.0	 30.0;
	43	 84	 0.007509	 0.051295	 0.00873	 221.1	 221.1	 221.1	 0.0	 0.0	 1	 -30.0	 30.0;
	43	 132	 0.011052	 0.075503	 0.01285	 221.1	 221.1	 221.1	 0.0	 0.0	 1	 -30.0	 30.0;
	44	 200	 0.014813	 0.101195	 0.01722	 221.1	 221.1	 221.1	 0.0	 0.0	 1	 -30.0	 30.0;
	46	 45	 0.000936	 0.049195	 0.0	 160.0	 160.0	 160.0	 1.0	 0.0	 1	 -30.0	 30.0;
	55	 45	 0.002593	 0.018527	 0.03378	 402.36	 402.36	 402.36	 0.0	 0.0	 1	 -30.0	 30.0;
	102	 45	 0.0029	 0.020715	 0.03777	 402.36	 402.36	 402.36	 0.0	 0.0	 1	 -30.0	 30.0;
	45	 187	 0.003474	 0.024821	 0.04525	 402.36	 402.36	 402.36	 0.0	 0.0	 1	 -30.0	 30.0;
	61	 46	 0.006971	 0.048561	 0.00794	 221.1	 221.1	 221.1	 0.0	 0.0	 1	 -30.0	 30.0;
	122	 46	 0.010129	 0.065419	 0.01248	 221.1	 221.1	 221.1	 0.0	 0.0	 1	 -30.0	 30.0;
	47	 54	 0.006678	 0.045623	 0.00776	 221.1	 221.1	 221.1	 0.0	 0.0	 1	 -30.0	 30.0;
	47	 66	 0.007339	 0.047401	 0.00904	 221.1	 221.1	 221.1	 0.0	 0.0	 1	 -30.0	 30.0;
	49	 48	 0.027149	 0.532021	 0.0	 28.9	 28.9	 28.9	 1.0	 0.0	 1	 -30.0	 30.0;
	50	 48	 0.021719	 0.404167	 0.0	 28.7	 28.7	 28.7	 1.0	 0.0	 1	 -30.0	 30.0;
	51	 48	 0.027149	 0.612711	 0.0	 24.3	 24.3	 24.3	 1.0	 0.0	 1	 -30.0	 30.0;
	52	 48	 0.021719	 0.379817	 0.0	 24.3	 24.3	 24.3	 1.0	 0.0	 1	 -30.0	 30.0;
	53	 48	 0.02121	 0.576549	 0.0	 35.3	 35.3	 35.3	 1.0	 0.0	 1	 -30.0	 30.0;
	48	 74	 0.007959	 0.054369	 0.00925	 221.1	 221.1	 221.1	 0.0	 0.0	 1	 -30.0	 30.0;
	54	 66	 0.007051	 0.045544	 0.00869	 221.1	 221.1	 221.1	 0.0	 0.0	 1	 -30.0	 30.0;
	56	 55	 0.005152	 0.124653	 0.0	 160.0	 160.0	 160.0	 1.0	 0.0	 1	 -30.0	 30.0;
	81	 55	 0.005467	 0.039054	 0.0712	 402.36	 402.36	 402.36	 0.0	 0.0	 1	 -30.0	 30.0;
	55	 102	 0.001246	 0.008902	 0.01623	 402.36	 402.36	 402.36	 0.0	 0.0	 1	 -30.0	 30.0;
	55	 112	 0.004166	 0.029763	 0.05426	 402.36	 402.36	 402.36	 0.0	 0.0	 1	 -30.0	 30.0;
	55	 128	 0.003415	 0.024395	 0.04448	 402.36	 402.36	 402.36	 0.0	 0.0	 1	 -30.0	 30.0;
	56	 103	 0.004282	 0.02983	 0.00488	 221.1	 221.1	 221.1	 0.0	 0.0	 1	 -30.0	 30.0;
	57	 159	 0.00752	 0.051369	 0.00874	 221.1	 221.1	 221.1	 0.0	 0.0	 1	 -30.0	 30.0;
	95	 58	 0.009836	 0.063526	 0.01212	 221.1	 221.1	 221.1	 0.0	 0.0	 1	 -30.0	 30.0;
	177	 58	 0.014049	 0.095972	 0.01633	 221.1	 221.1	 221.1	 0.0	 0.0	 1	 -30.0	 30.0;
	59	 119	 0.011209	 0.072397	 0.01381	 221.1	 221.1	 221.1	 0.0	 0.0	 1	 -30.0	 30.0;
	59	 139	 0.009665	 0.062426	 0.01191	 221.1	 221.1	 221.1	 0.0	 0.0	 1	 -30.0	 30.0;
	60	 97	 0.012274	 0.079279	 0.01512	 221.1	 221.1	 221.1	 0.0	 0.0	 1	 -30.0	 30.0;
	134	 60	 0.009007	 0.062749	 0.01026	 221.1	 221.1	 221.1	 0.0	 0.0	 1	 -30.0	 30.0;
	61	 103	 0.006539	 0.045556	 0.00745	 221.1	 221.1	 221.1	 0.0	 0.0	 1	 -30.0	 30.0;
	159	 62	 0.008634	 0.058979	 0.01003	 221.1	 221.1	 221.1	 0.0	 0.0	 1	 -30.0	 30.0;
	160	 62	 0.007628	 0.053144	 0.00869	 221.1	 221.1	 221.1	 0.0	 0.0	 1	 -30.0	 30.0;
	63	 66	 0.011949	 0.083244	 0.01361	 221.1	 221.1	 221.1	 0.0	 0.0	 1	 -30.0	 30.0;
	63	 184	 0.017963	 0.116023	 0.02214	 221.1	 221.1	 221.1	 0.0	 0.0	 1	 -30.0	 30.0;
	65	 64	 0.00128	 0.10157	 0.0	 195.5	 195.5	 195.5	 1.0	 0.0	 1	 -30.0	 30.0;
	67	 66	 0.020951	 0.144786	 0.0	 30.0	 30.0	 30.0	 1.0	 0.0	 1	 -30.0	 30.0;
	68	 66	 0.00689	 0.264997	 0.0	 73.0	 73.0	 73.0	 1.0	 0.0	 1	 -30.0	 30.0;
	69	 66	 0.00441	 0.09499	 0.0	 70.5	 70.5	 70.5	 1.0	 0.0	 1	 -30.0	 30.0;
	70	 66	 0.00689	 0.199449	 0.0	 70.5	 70.5	 70.5	 1.0	 0.0	 1	 -30.0	 30.0;
	71	 66	 0.003528	 0.081544	 0.0	 68.0	 68.0	 68.0	 1.0	 0.0	 1	 -30.0	 30.0;
	72	 66	 0.003528	 0.074599	 0.0	 68.0	 68.0	 68.0	 1.0	 0.0	 1	 -30.0	 30.0;
	73	 66	 0.00689	 0.146423	 0.0	 65.0	 65.0	 65.0	 1.0	 0.0	 1	 -30.0	 30.0;
	66	 158	 0.004993	 0.032251	 0.00615	 221.1	 221.1	 221.1	 0.0	 0.0	 1	 -30.0	 30.0;
	74	 190	 0.008894	 0.06076	 0.01034	 221.1	 221.1	 221.1	 0.0	 0.0	 1	 -30.0	 30.0;
	76	 75	 0.038464	 0.784328	 0.0	 24.3	 24.3	 24.3	 1.0	 0.0	 1	 -30.0	 30.0;
	77	 75	 0.08013	 2.192105	 0.0	 7.4	 7.4	 7.4	 1.0	 0.0	 1	 -30.0	 30.0;
	78	 75	 0.008544	 0.181406	 0.0	 65.0	 65.0	 65.0	 1.0	 0.0	 1	 -30.0	 30.0;
	79	 75	 0.01068	 0.277774	 0.0	 62.1	 62.1	 62.1	 1.0	 0.0	 1	 -30.0	 30.0;
	108	 75	 0.010988	 0.070969	 0.01354	 221.1	 221.1	 221.1	 0.0	 0.0	 1	 -30.0	 30.0;
	75	 157	 0.013487	 0.087112	 0.01662	 221.1	 221.1	 221.1	 0.0	 0.0	 1	 -30.0	 30.0;
	80	 100	 0.021463	 0.149525	 0.02444	 221.1	 221.1	 221.1	 0.0	 0.0	 1	 -30.0	 30.0;
	80	 143	 0.020594	 0.14347	 0.02345	 221.1	 221.1	 221.1	 0.0	 0.0	 1	 -30.0	 30.0;
	82	 81	 0.00097	 0.042371	 0.0	 250.0	 250.0	 250.0	 1.0	 0.0	 1	 -30.0	 30.0;
	81	 178	 0.006598	 0.047137	 0.08594	 402.36	 402.36	 402.36	 0.0	 0.0	 1	 -30.0	 30.0;
	82	 195	 0.003845	 0.026265	 0.00447	 221.1	 221.1	 221.1	 0.0	 0.0	 1	 -30.0	 30.0;
	83	 146	 0.005382	 0.036767	 0.00626	 221.1	 221.1	 221.1	 0.0	 0.0	 1	 -30.0	 30.0;
	83	 186	 0.00792	 0.055174	 0.00902	 221.1	 221.1	 221.1	 0.0	 0.0	 1	 -30.0	 30.0;
	84	 113	 0.006652	 0.04544	 0.00773	 221.1	 221.1	 221.1	 0.0	 0.0	 1	 -30.0	 30.0;
	85	 120	 0.007786	 0.050291	 0.00959	 221.1	 221.1	 221.1	 0.0	 0.0	 1	 -30.0	 30.0;
	86	 101	 0.00512	 0.033072	 0.00631	 221.1	 221.1	 221.1	 0.0	 0.0	 1	 -30.0	 30.0;
	142	 86	 0.003387	 0.023141	 0.00394	 221.1	 221.1	 221.1	 0.0	 0.0	 1	 -30.0	 30.0;
	86	 193	 0.006606	 0.042664	 0.00814	 221.1	 221.1	 221.1	 0.0	 0.0	 1	 -30.0	 30.0;
	88	 87	 0.000832	 0.034189	 0.0	 350.0	 350.0	 350.0	 1.0	 0.0	 1	 -30.0	 30.0;
	149	 87	 0.001621	 0.011579	 0.02111	 402.36	 402.36	 402.36	 0.0	 0.0	 1	 -30.0	 30.0;
	88	 150	 0.00557	 0.035973	 0.00686	 221.1	 221.1	 221.1	 0.0	 0.0	 1	 -30.0	 30.0;
	176	 88	 0.003859	 0.024922	 0.00475	 221.1	 221.1	 221.1	 0.0	 0.0	 1	 -30.0	 30.0;
	88	 194	 0.004258	 0.029088	 0.00495	 221.1	 221.1	 221.1	 0.0	 0.0	 1	 -30.0	 30.0;
	90	 89	 0.0601	 2.279922	 0.0	 8.6	 8.6	 8.6	 1.0	 0.0	 1	 -30.0	 30.0;
	91	 89	 0.024614	 0.503424	 0.0	 32.0	 32.0	 32.0	 1.0	 0.0	 1	 -30.0	 30.0;
	92	 89	 0.019539	 0.36204	 0.0	 35.3	 35.3	 35.3	 1.0	 0.0	 1	 -30.0	 30.0;
	89	 95	 0.008734	 0.056409	 0.01076	 221.1	 221.1	 221.1	 0.0	 0.0	 1	 -30.0	 30.0;
	188	 89	 0.00805	 0.051996	 0.00992	 221.1	 221.1	 221.1	 0.0	 0.0	 1	 -30.0	 30.0;
	94	 93	 0.01068	 0.280602	 0.0	 62.1	 62.1	 62.1	 1.0	 0.0	 1	 -30.0	 30.0;
	93	 191	 0.022088	 0.142662	 0.02722	 221.1	 221.1	 221.1	 0.0	 0.0	 1	 -30.0	 30.0;
	122	 96	 0.01062	 0.073986	 0.01209	 221.1	 221.1	 221.1	 0.0	 0.0	 1	 -30.0	 30.0;
	96	 143	 0.015858	 0.102423	 0.01954	 221.1	 221.1	 221.1	 0.0	 0.0	 1	 -30.0	 30.0;
	96	 188	 0.010903	 0.070421	 0.01343	 221.1	 221.1	 221.1	 0.0	 0.0	 1	 -30.0	 30.0;
	97	 200	 0.01318	 0.085125	 0.01624	 221.1	 221.1	 221.1	 0.0	 0.0	 1	 -30.0	 30.0;
	99	 98	 0.000643	 0.030516	 0.0	 250.0	 250.0	 250.0	 1.0	 0.0	 1	 -30.0	 30.0;
	98	 123	 0.0047	 0.033574	 0.06121	 402.36	 402.36	 402.36	 0.0	 0.0	 1	 -30.0	 30.0;
	99	 142	 0.007605	 0.052982	 0.00866	 221.1	 221.1	 221.1	 0.0	 0.0	 1	 -30.0	 30.0;
	100	 174	 0.010698	 0.074531	 0.01218	 221.1	 221.1	 221.1	 0.0	 0.0	 1	 -30.0	 30.0;
	100	 179	 0.007093	 0.049413	 0.00808	 221.1	 221.1	 221.1	 0.0	 0.0	 1	 -30.0	 30.0;
	100	 184	 0.012745	 0.08879	 0.01451	 221.1	 221.1	 221.1	 0.0	 0.0	 1	 -30.0	 30.0;
	110	 101	 0.00196	 0.012657	 0.00241	 221.1	 221.1	 221.1	 0.0	 0.0	 1	 -30.0	 30.0;
	101	 117	 0.005245	 0.035833	 0.0061	 221.1	 221.1	 221.1	 0.0	 0.0	 1	 -30.0	 30.0;
	101	 141	 0.003144	 0.020305	 0.00387	 221.1	 221.1	 221.1	 0.0	 0.0	 1	 -30.0	 30.0;
	103	 102	 0.001709	 0.054578	 0.0	 250.0	 250.0	 250.0	 1.0	 0.0	 1	 -30.0	 30.0;
	104	 102	 0.0021	 0.087749	 0.0	 130.0	 130.0	 130.0	 1.0	 0.0	 1	 -30.0	 30.0;
	105	 102	 0.00097	 0.059419	 0.0	 260.0	 260.0	 260.0	 1.0	 0.0	 1	 -30.0	 30.0;
	102	 128	 0.0027	 0.019292	 0.03517	 402.36	 402.36	 402.36	 0.0	 0.0	 1	 -30.0	 30.0;
	103	 106	 0.007749	 0.053987	 0.00883	 221.1	 221.1	 221.1	 0.0	 0.0	 1	 -30.0	 30.0;
	130	 106	 0.006991	 0.047761	 0.00813	 221.1	 221.1	 221.1	 0.0	 0.0	 1	 -30.0	 30.0;
	107	 113	 0.006748	 0.046101	 0.00784	 221.1	 221.1	 221.1	 0.0	 0.0	 1	 -30.0	 30.0;
	107	 129	 0.005168	 0.035307	 0.00601	 221.1	 221.1	 221.1	 0.0	 0.0	 1	 -30.0	 30.0;
	192	 107	 0.003939	 0.025441	 0.00485	 221.1	 221.1	 221.1	 0.0	 0.0	 1	 -30.0	 30.0;
	108	 198	 0.024792	 0.160126	 0.03055	 221.1	 221.1	 221.1	 0.0	 0.0	 1	 -30.0	 30.0;
	186	 109	 0.008774	 0.059942	 0.0102	 221.1	 221.1	 221.1	 0.0	 0.0	 1	 -30.0	 30.0;
	110	 193	 0.003444	 0.022243	 0.00424	 221.1	 221.1	 221.1	 0.0	 0.0	 1	 -30.0	 30.0;
	163	 111	 0.005281	 0.034111	 0.00651	 221.1	 221.1	 221.1	 0.0	 0.0	 1	 -30.0	 30.0;
	111	 175	 0.00795	 0.055386	 0.00905	 221.1	 221.1	 221.1	 0.0	 0.0	 1	 -30.0	 30.0;
	113	 112	 0.002077	 0.058615	 0.0	 350.0	 350.0	 350.0	 1.0	 0.0	 1	 -30.0	 30.0;
	114	 112	 0.06	 0.434013	 0.0	 20.0	 20.0	 20.0	 1.0	 0.0	 1	 -30.0	 30.0;
	115	 112	 0.00128	 0.062771	 0.0	 200.0	 200.0	 200.0	 1.0	 0.0	 1	 -30.0	 30.0;
	128	 112	 0.001295	 0.009255	 0.01687	 402.36	 402.36	 402.36	 0.0	 0.0	 1	 -30.0	 30.0;
	113	 192	 0.005418	 0.034995	 0.00668	 221.1	 221.1	 221.1	 0.0	 0.0	 1	 -30.0	 30.0;
	117	 116	 0.000517	 0.034943	 0.0	 300.0	 300.0	 300.0	 1.0	 0.0	 1	 -30.0	 30.0;
	133	 116	 0.00389	 0.027793	 0.05067	 402.36	 402.36	 402.36	 0.0	 0.0	 1	 -30.0	 30.0;
	117	 132	 0.011912	 0.082984	 0.01357	 221.1	 221.1	 221.1	 0.0	 0.0	 1	 -30.0	 30.0;
	117	 162	 0.01617	 0.104442	 0.01993	 221.1	 221.1	 221.1	 0.0	 0.0	 1	 -30.0	 30.0;
	131	 118	 0.00718	 0.046377	 0.00885	 221.1	 221.1	 221.1	 0.0	 0.0	 1	 -30.0	 30.0;
	118	 134	 0.011598	 0.0808	 0.01321	 221.1	 221.1	 221.1	 0.0	 0.0	 1	 -30.0	 30.0;
	118	 198	 0.009487	 0.064809	 0.01103	 221.1	 221.1	 221.1	 0.0	 0.0	 1	 -30.0	 30.0;
	122	 121	 0.000786	 0.063023	 0.0	 200.0	 200.0	 200.0	 1.0	 0.0	 1	 -30.0	 30.0;
	121	 178	 0.008903	 0.063604	 0.11596	 402.36	 402.36	 402.36	 0.0	 0.0	 1	 -30.0	 30.0;
	187	 121	 0.001063	 0.007593	 0.01384	 402.36	 402.36	 402.36	 0.0	 0.0	 1	 -30.0	 30.0;
	124	 123	 0.000329	 0.017481	 0.0	 400.0	 400.0	 400.0	 1.0	 0.0	 1	 -30.0	 30.0;
	125	 123	 0.00448	 0.104562	 0.0	 170.0	 170.0	 170.0	 1.0	 0.0	 1	 -30.0	 30.0;
	126	 123	 0.00148	 0.066043	 0.0	 170.0	 170.0	 170.0	 1.0	 0.0	 1	 -30.0	 30.0;
	127	 123	 0.001	 0.031691	 0.0	 170.0	 170.0	 170.0	 1.0	 0.0	 1	 -30.0	 30.0;
	123	 133	 0.001459	 0.010423	 0.019	 402.36	 402.36	 402.36	 0.0	 0.0	 1	 -30.0	 30.0;
	156	 123	 0.001117	 0.007981	 0.01455	 402.36	 402.36	 402.36	 0.0	 0.0	 1	 -30.0	 30.0;
	124	 193	 0.006577	 0.04582	 0.00749	 221.1	 221.1	 221.1	 0.0	 0.0	 1	 -30.0	 30.0;
	129	 128	 0.000753	 0.044453	 0.0	 250.0	 250.0	 250.0	 1.0	 0.0	 1	 -30.0	 30.0;
	128	 133	 0.009554	 0.068257	 0.12444	 402.36	 402.36	 402.36	 0.0	 0.0	 1	 -30.0	 30.0;
	130	 144	 0.022678	 0.157988	 0.02583	 221.1	 221.1	 221.1	 0.0	 0.0	 1	 -30.0	 30.0;
	134	 133	 0.0002	 0.013328	 0.0	 400.0	 400.0	 400.0	 1.0	 0.0	 1	 -30.0	 30.0;
	135	 133	 0.00043	 0.033512	 0.0	 580.0	 580.0	 580.0	 1.0	 0.0	 1	 -30.0	 30.0;
	136	 133	 0.00043	 0.027478	 0.0	 580.0	 580.0	 580.0	 1.0	 0.0	 1	 -30.0	 30.0;
	156	 133	 0.001958	 0.013985	 0.0255	 402.36	 402.36	 402.36	 0.0	 0.0	 1	 -30.0	 30.0;
	134	 140	 0.010445	 0.071357	 0.01214	 221.1	 221.1	 221.1	 0.0	 0.0	 1	 -30.0	 30.0;
	134	 186	 0.014463	 0.093412	 0.01782	 221.1	 221.1	 221.1	 0.0	 0.0	 1	 -30.0	 30.0;
...
];

% INFO    : === Translation Options ===
% INFO    : Load Model:                  from file ./pglib_opf_case200_activ.m.api.sol
% INFO    : Gen Active Capacity Model:   stat
% INFO    : Gen Reactive Capacity Model: al50ag
% INFO    : Gen Active Cost Model:       stat
% INFO    : 
% INFO    : === Load Replacement Notes ===
% INFO    : Bus 2	: Pd=7.39, Qd=2.1 -> Pd=12.30, Qd=2.10
% INFO    : Bus 4	: Pd=1.7, Qd=0.48 -> Pd=2.83, Qd=0.48
% INFO    : Bus 6	: Pd=7.95, Qd=2.26 -> Pd=13.23, Qd=2.26
% INFO    : Bus 8	: Pd=23.74, Qd=6.77 -> Pd=39.52, Qd=6.77
% INFO    : Bus 10	: Pd=42.68, Qd=12.16 -> Pd=71.04, Qd=12.16
% INFO    : Bus 12	: Pd=0.3, Qd=0.09 -> Pd=0.50, Qd=0.09
% INFO    : Bus 13	: Pd=2.52, Qd=0.72 -> Pd=4.19, Qd=0.72
% INFO    : Bus 16	: Pd=44.76, Qd=12.76 -> Pd=74.51, Qd=12.76
% INFO    : Bus 18	: Pd=0.71, Qd=0.2 -> Pd=1.18, Qd=0.20
% INFO    : Bus 19	: Pd=0.77, Qd=0.22 -> Pd=1.28, Qd=0.22
% INFO    : Bus 20	: Pd=1.13, Qd=0.32 -> Pd=1.88, Qd=0.32
% INFO    : Bus 21	: Pd=4.61, Qd=1.31 -> Pd=7.67, Qd=1.31
% INFO    : Bus 23	: Pd=1.41, Qd=0.4 -> Pd=2.35, Qd=0.40
% INFO    : Bus 24	: Pd=2.4, Qd=0.68 -> Pd=3.99, Qd=0.68
% INFO    : Bus 26	: Pd=1.35, Qd=0.39 -> Pd=2.25, Qd=0.39
% INFO    : Bus 28	: Pd=2.33, Qd=0.67 -> Pd=3.88, Qd=0.67
% INFO    : Bus 30	: Pd=59.09, Qd=16.84 -> Pd=98.36, Qd=16.84
% INFO    : Bus 32	: Pd=0.51, Qd=0.15 -> Pd=0.85, Qd=0.15
% INFO    : Bus 33	: Pd=6.44, Qd=1.84 -> Pd=10.72, Qd=1.84
% INFO    : Bus 35	: Pd=20.76, Qd=5.92 -> Pd=34.56, Qd=5.92
% INFO    : Bus 37	: Pd=3.57, Qd=1.02 -> Pd=5.94, Qd=1.02
% INFO    : Bus 38	: Pd=29.81, Qd=8.5 -> Pd=49.62, Qd=8.50
% INFO    : Bus 39	: Pd=7.41, Qd=2.11 -> Pd=12.33, Qd=2.11
% INFO    : Bus 40	: Pd=2.04, Qd=0.58 -> Pd=3.40, Qd=0.58
% INFO    : Bus 41	: Pd=38.34, Qd=10.93 -> Pd=63.82, Qd=10.93
% INFO    : Bus 42	: Pd=10.62, Qd=3.03 -> Pd=17.68, Qd=3.03
% INFO    : Bus 43	: Pd=2.09, Qd=0.59 -> Pd=3.48, Qd=0.59
% INFO    : Bus 44	: Pd=4.15, Qd=1.18 -> Pd=6.91, Qd=1.18
% INFO    : Bus 46	: Pd=6.34, Qd=1.81 -> Pd=10.55, Qd=1.81
% INFO    : Bus 47	: Pd=1.54, Qd=0.44 -> Pd=2.56, Qd=0.44
% INFO    : Bus 48	: Pd=1.82, Qd=0.52 -> Pd=3.03, Qd=0.52
% INFO    : Bus 54	: Pd=2.66, Qd=0.76 -> Pd=4.43, Qd=0.76
% INFO    : Bus 56	: Pd=1.31, Qd=0.37 -> Pd=2.18, Qd=0.37
% INFO    : Bus 57	: Pd=2.82, Qd=0.8 -> Pd=4.69, Qd=0.80
% INFO    : Bus 58	: Pd=4.23, Qd=1.21 -> Pd=7.04, Qd=1.21
% INFO    : Bus 59	: Pd=4.73, Qd=1.35 -> Pd=7.87, Qd=1.35
% INFO    : Bus 60	: Pd=3.8, Qd=1.08 -> Pd=6.33, Qd=1.08
% INFO    : Bus 61	: Pd=20.55, Qd=5.86 -> Pd=34.21, Qd=5.86
% INFO    : Bus 62	: Pd=21.41, Qd=6.1 -> Pd=35.64, Qd=6.10
% INFO    : Bus 63	: Pd=7.98, Qd=2.27 -> Pd=13.28, Qd=2.27
% INFO    : Bus 74	: Pd=18.76, Qd=5.35 -> Pd=31.23, Qd=5.35
% INFO    : Bus 75	: Pd=3.6, Qd=1.03 -> Pd=5.99, Qd=1.03
% INFO    : Bus 80	: Pd=1.48, Qd=0.42 -> Pd=2.46, Qd=0.42
% INFO    : Bus 82	: Pd=7.6, Qd=2.17 -> Pd=12.65, Qd=2.17
% INFO    : Bus 83	: Pd=3.14, Qd=0.89 -> Pd=5.23, Qd=0.89
% INFO    : Bus 84	: Pd=3.75, Qd=1.07 -> Pd=6.24, Qd=1.07
% INFO    : Bus 85	: Pd=4.83, Qd=1.38 -> Pd=8.04, Qd=1.38
% INFO    : Bus 86	: Pd=8.25, Qd=2.35 -> Pd=13.73, Qd=2.35
% INFO    : Bus 88	: Pd=49.34, Qd=14.06 -> Pd=82.13, Qd=14.06
% INFO    : Bus 89	: Pd=62.85, Qd=17.91 -> Pd=104.62, Qd=17.91
% INFO    : Bus 93	: Pd=3.06, Qd=0.87 -> Pd=5.09, Qd=0.87
% INFO    : Bus 95	: Pd=3.0, Qd=0.85 -> Pd=4.99, Qd=0.85
% INFO    : Bus 96	: Pd=2.96, Qd=0.84 -> Pd=4.93, Qd=0.84
% INFO    : Bus 97	: Pd=7.33, Qd=2.09 -> Pd=12.20, Qd=2.09
% INFO    : Bus 99	: Pd=12.17, Qd=3.47 -> Pd=20.26, Qd=3.47
% INFO    : Bus 100	: Pd=37.39, Qd=10.66 -> Pd=62.24, Qd=10.66
% INFO    : Bus 101	: Pd=0.52, Qd=0.15 -> Pd=0.87, Qd=0.15
% INFO    : Bus 106	: Pd=2.06, Qd=0.59 -> Pd=3.43, Qd=0.59
% INFO    : Bus 107	: Pd=52.56, Qd=14.98 -> Pd=87.49, Qd=14.98
% INFO    : Bus 108	: Pd=9.42, Qd=2.68 -> Pd=15.68, Qd=2.68
% INFO    : Bus 109	: Pd=5.16, Qd=1.47 -> Pd=8.59, Qd=1.47
% INFO    : Bus 110	: Pd=10.86, Qd=3.09 -> Pd=18.08, Qd=3.09
% INFO    : Bus 111	: Pd=8.82, Qd=2.51 -> Pd=14.68, Qd=2.51
% INFO    : Bus 117	: Pd=34.08, Qd=9.71 -> Pd=56.73, Qd=9.71
% INFO    : Bus 118	: Pd=3.94, Qd=1.12 -> Pd=6.56, Qd=1.12
% INFO    : Bus 119	: Pd=17.55, Qd=5.0 -> Pd=29.21, Qd=5.00
% INFO    : Bus 120	: Pd=1.8, Qd=0.51 -> Pd=3.00, Qd=0.51
% INFO    : Bus 122	: Pd=15.44, Qd=4.4 -> Pd=25.70, Qd=4.40
% INFO    : Bus 129	: Pd=77.24, Qd=22.01 -> Pd=128.57, Qd=22.01
% INFO    : Bus 130	: Pd=4.4, Qd=1.25 -> Pd=7.32, Qd=1.25
% INFO    : Bus 131	: Pd=30.25, Qd=8.62 -> Pd=50.35, Qd=8.62
% INFO    : Bus 132	: Pd=26.96, Qd=7.68 -> Pd=44.88, Qd=7.68
% INFO    : Bus 137	: Pd=1.16, Qd=0.33 -> Pd=1.93, Qd=0.33
% INFO    : Bus 138	: Pd=2.09, Qd=0.6 -> Pd=3.48, Qd=0.60
% INFO    : Bus 139	: Pd=6.84, Qd=1.95 -> Pd=11.39, Qd=1.95
% INFO    : Bus 140	: Pd=8.21, Qd=2.34 -> Pd=13.67, Qd=2.34
% INFO    : Bus 141	: Pd=1.42, Qd=0.41 -> Pd=2.36, Qd=0.41
% INFO    : Bus 142	: Pd=37.26, Qd=10.62 -> Pd=62.02, Qd=10.62
% INFO    : Bus 143	: Pd=26.78, Qd=7.63 -> Pd=44.58, Qd=7.63
% INFO    : Bus 144	: Pd=9.05, Qd=2.58 -> Pd=15.06, Qd=2.58
% INFO    : Bus 145	: Pd=17.54, Qd=5.0 -> Pd=29.20, Qd=5.00
% INFO    : Bus 148	: Pd=32.02, Qd=9.13 -> Pd=53.30, Qd=9.13
% INFO    : Bus 157	: Pd=14.76, Qd=4.21 -> Pd=24.57, Qd=4.21
% INFO    : Bus 158	: Pd=8.97, Qd=2.56 -> Pd=14.93, Qd=2.56
% INFO    : Bus 159	: Pd=1.39, Qd=0.4 -> Pd=2.31, Qd=0.40
% INFO    : Bus 162	: Pd=1.45, Qd=0.41 -> Pd=2.41, Qd=0.41
% INFO    : Bus 163	: Pd=45.8, Qd=13.05 -> Pd=76.24, Qd=13.05
% INFO    : Bus 171	: Pd=7.94, Qd=2.26 -> Pd=13.22, Qd=2.26
% INFO    : Bus 172	: Pd=5.38, Qd=1.53 -> Pd=8.96, Qd=1.53
% INFO    : Bus 173	: Pd=8.71, Qd=2.48 -> Pd=14.50, Qd=2.48
% INFO    : Bus 174	: Pd=2.77, Qd=0.79 -> Pd=4.61, Qd=0.79
% INFO    : Bus 175	: Pd=7.31, Qd=2.08 -> Pd=12.17, Qd=2.08
% INFO    : Bus 176	: Pd=19.01, Qd=5.42 -> Pd=31.64, Qd=5.42
% INFO    : Bus 177	: Pd=11.29, Qd=3.22 -> Pd=18.79, Qd=3.22
% INFO    : Bus 179	: Pd=23.61, Qd=6.73 -> Pd=39.30, Qd=6.73
% INFO    : Bus 180	: Pd=7.74, Qd=2.21 -> Pd=12.88, Qd=2.21
% INFO    : Bus 181	: Pd=47.98, Qd=13.67 -> Pd=79.87, Qd=13.67
% INFO    : Bus 184	: Pd=10.69, Qd=3.05 -> Pd=17.79, Qd=3.05
% INFO    : Bus 185	: Pd=10.79, Qd=3.07 -> Pd=17.96, Qd=3.07
% INFO    : Bus 186	: Pd=2.1, Qd=0.6 -> Pd=3.50, Qd=0.60
% INFO    : Bus 190	: Pd=16.79, Qd=4.78 -> Pd=27.95, Qd=4.78
% INFO    : Bus 191	: Pd=7.23, Qd=2.06 -> Pd=12.03, Qd=2.06
% INFO    : Bus 192	: Pd=52.74, Qd=15.03 -> Pd=87.79, Qd=15.03
% INFO    : Bus 193	: Pd=21.99, Qd=6.27 -> Pd=36.60, Qd=6.27
% INFO    : Bus 194	: Pd=37.57, Qd=10.71 -> Pd=62.54, Qd=10.71
% INFO    : Bus 198	: Pd=5.37, Qd=1.53 -> Pd=8.94, Qd=1.53
% INFO    : Bus 199	: Pd=4.26, Qd=1.21 -> Pd=7.09, Qd=1.21
% INFO    : Bus 200	: Pd=9.34, Qd=2.66 -> Pd=15.55, Qd=2.66
% INFO    : 
% INFO    : === Generator Setpoint Replacement Notes ===
% INFO    : Gen at bus 49	: Pg=2.945, Qg=0.78 -> Pg=11.0, Qg=1.0
% INFO    : Gen at bus 50	: Pg=2.945, Qg=0.78 -> Pg=11.0, Qg=1.0
% INFO    : Gen at bus 51	: Pg=2.945, Qg=0.78 -> Pg=9.0, Qg=1.0
% INFO    : Gen at bus 52	: Pg=2.945, Qg=0.78 -> Pg=9.0, Qg=1.0
% INFO    : Gen at bus 53	: Pg=5.895, Qg=1.56 -> Pg=14.0, Qg=1.0
% INFO    : Gen at bus 65	: Pg=86.5, Qg=5.19 -> Pg=112.0, Qg=7.0
% INFO    : Gen at bus 67	: Pg=3.055, Qg=0.81 -> Pg=12.0, Qg=-1.0
% INFO    : Gen at bus 68	: Pg=18.15, Qg=4.8 -> Pg=31.0, Qg=-2.0
% INFO    : Gen at bus 69	: Pg=18.15, Qg=4.8 -> Pg=31.0, Qg=-3.0
% INFO    : Gen at bus 70	: Pg=18.15, Qg=4.8 -> Pg=30.0, Qg=-2.0
% INFO    : Gen at bus 71	: Pg=18.15, Qg=4.8 -> Pg=30.0, Qg=-3.0
% INFO    : Gen at bus 72	: Pg=18.15, Qg=4.8 -> Pg=30.0, Qg=-3.0
% INFO    : Gen at bus 73	: Pg=18.15, Qg=4.8 -> Pg=28.0, Qg=-2.0
% INFO    : Gen at bus 76	: Pg=2.6, Qg=0.8 -> Pg=10.0, Qg=-4.0
% INFO    : Gen at bus 77	: Pg=1.56, Qg=0.475 -> Pg=3.0, Qg=-2.0
% INFO    : Gen at bus 90	: Pg=2.08, Qg=0.635 -> Pg=4.0, Qg=-1.0
% INFO    : Gen at bus 91	: Pg=3.25, Qg=1.0 -> Pg=14.0, Qg=-2.0
% INFO    : Gen at bus 94	: Pg=11.7, Qg=3.095 -> Pg=28.0, Qg=-4.0
% INFO    : Gen at bus 104	: Pg=67.6, Qg=3.415 -> Pg=84.0, Qg=6.0
% INFO    : Gen at bus 105	: Pg=154.8, Qg=6.83 -> Pg=181.0, Qg=23.0
% INFO    : Gen at bus 114	: Pg=1.4, Qg=0.06 -> Pg=8.0, Qg=-1.0
% INFO    : Gen at bus 115	: Pg=133.5, Qg=5.175 -> Pg=150.0, Qg=27.0
% INFO    : Gen at bus 125	: Pg=84.535, Qg=22.365 -> Pg=83.0, Qg=18.0
% INFO    : Gen at bus 126	: Pg=84.535, Qg=22.365 -> Pg=87.0, Qg=34.0
% INFO    : Gen at bus 127	: Pg=84.535, Qg=22.365 -> Pg=85.0, Qg=77.0
% INFO    : Gen at bus 135	: Pg=290.16, Qg=76.78 -> Pg=282.0, Qg=82.0
% INFO    : Gen at bus 136	: Pg=290.16, Qg=76.78 -> Pg=290.0, Qg=98.0
% INFO    : Gen at bus 147	: Pg=92.4, Qg=3.47 -> Pg=103.0, Qg=13.0
% INFO    : Gen at bus 151	: Pg=3.51, Qg=0.93 -> Pg=8.0, Qg=-1.0
% INFO    : Gen at bus 152	: Pg=50.195, Qg=13.285 -> Pg=54.0, Qg=2.0
% INFO    : Gen at bus 153	: Pg=50.195, Qg=13.285 -> Pg=54.0, Qg=2.0
% INFO    : Gen at bus 154	: Pg=50.195, Qg=13.285 -> Pg=54.0, Qg=2.0
% INFO    : Gen at bus 155	: Pg=50.195, Qg=13.285 -> Pg=54.0, Qg=2.0
% INFO    : Gen at bus 167	: Pg=6.11, Qg=1.87 -> Pg=19.0, Qg=-3.0
% INFO    : Gen at bus 170	: Pg=6.11, Qg=1.87 -> Pg=16.0, Qg=-2.0
% INFO    : Gen at bus 182	: Pg=11.375, Qg=3.01 -> Pg=32.0, Qg=3.0
% INFO    : Gen at bus 183	: Pg=17.29, Qg=4.575 -> Pg=36.0, Qg=5.0
% INFO    : Gen at bus 189	: Pg=369.95, Qg=81.39 -> Pg=405.0, Qg=-40.0
% INFO    : 
% INFO    : === Generator Reactive Capacity Atleast Setpoint Value Notes ===
% INFO    : Gen at bus 49	: Qg 1.0, Qmin -0.55, Qmax 2.11 -> Qmin -1.2, Qmax 2.11
% INFO    : Gen at bus 50	: Qg 1.0, Qmin -0.55, Qmax 2.11 -> Qmin -1.2, Qmax 2.11
% INFO    : Gen at bus 51	: Qg 1.0, Qmin -0.55, Qmax 2.11 -> Qmin -1.2, Qmax 2.11
% INFO    : Gen at bus 52	: Qg 1.0, Qmin -0.55, Qmax 2.11 -> Qmin -1.2, Qmax 2.11
% INFO    : Gen at bus 67	: Qg -1.0, Qmin -0.57, Qmax 2.19 -> Qmin -1.2, Qmax 2.19
% INFO    : Gen at bus 76	: Qg -4.0, Qmin -0.44, Qmax 2.04 -> Qmin -4.8, Qmax 4.8
% INFO    : Gen at bus 77	: Qg -2.0, Qmin -0.27, Qmax 1.22 -> Qmin -2.4, Qmax 2.4
% INFO    : Gen at bus 90	: Qg -1.0, Qmin -0.36, Qmax 1.63 -> Qmin -1.2, Qmax 1.63
% INFO    : Gen at bus 91	: Qg -2.0, Qmin -0.55, Qmax 2.55 -> Qmin -2.4, Qmax 2.55
% INFO    : Gen at bus 94	: Qg -4.0, Qmin -2.2, Qmax 8.39 -> Qmin -4.8, Qmax 8.39
% INFO    : Gen at bus 114	: Qg -1.0, Qmin -0.24, Qmax 0.36 -> Qmin -1.2, Qmax 1.2
% INFO    : Gen at bus 115	: Qg 27.0, Qmin -21.6, Qmax 31.95 -> Qmin -32.4, Qmax 31.95
% INFO    : Gen at bus 125	: Qg 18.0, Qmin -15.87, Qmax 60.6 -> Qmin -21.6, Qmax 60.6
% INFO    : Gen at bus 126	: Qg 34.0, Qmin -15.87, Qmax 60.6 -> Qmin -40.8, Qmax 60.6
% INFO    : Gen at bus 127	: Qg 77.0, Qmin -15.87, Qmax 60.6 -> Qmin -92.4, Qmax 92.4
% INFO    : Gen at bus 135	: Qg 82.0, Qmin -54.46, Qmax 208.02 -> Qmin -98.4, Qmax 208.02
% INFO    : Gen at bus 136	: Qg 98.0, Qmin -54.46, Qmax 208.02 -> Qmin -117.6, Qmax 208.02
% INFO    : Gen at bus 151	: Qg -1.0, Qmin -0.66, Qmax 2.52 -> Qmin -1.2, Qmax 2.52
% INFO    : Gen at bus 167	: Qg -3.0, Qmin -1.04, Qmax 4.78 -> Qmin -3.6, Qmax 4.78
% INFO    : Gen at bus 170	: Qg -2.0, Qmin -1.04, Qmax 4.78 -> Qmin -2.4, Qmax 4.78
% INFO    : Gen at bus 182	: Qg 3.0, Qmin -2.14, Qmax 8.16 -> Qmin -3.6, Qmax 8.16
% INFO    : Gen at bus 183	: Qg 5.0, Qmin -3.25, Qmax 12.4 -> Qmin -6.0, Qmax 12.4
% INFO    : 
% INFO    : === Generator Classification Notes ===
% INFO    : PEL    9   -     7.39
% INFO    : COW    7   -    33.25
% INFO    : NG     33  -    59.35
% INFO    : 
% INFO    : === Generator Active Capacity Stat Model Notes ===
% INFO    : Gen at bus 49 - NG	: Pg=11.0, Pmax=4.53 -> Pmax=23   samples: 4
% INFO    : Gen at bus 50 - NG	: Pg=11.0, Pmax=4.53 -> Pmax=18   samples: 3
% INFO    : Gen at bus 51 - NG	: Pg=9.0, Pmax=4.53 -> Pmax=26   samples: 2
% INFO    : Gen at bus 52 - NG	: Pg=9.0, Pmax=4.53 -> Pmax=29   samples: 10
% INFO    : Gen at bus 53 - NG	: Pg=14.0, Pmax=9.07 -> Pmax=32   samples: 2
% INFO    : Gen at bus 65 - NG	: Pg=112.0, Pmax=86.5 -> Pmax=435   samples: 3
% INFO    : Gen at bus 67 - NG	: Pg=12.0, Pmax=4.7 -> Pmax=23   samples: 5
% INFO    : Gen at bus 68 - PEL	: Pg=31.0, Pmax=27.92 -> Pmax=129   samples: 1
% INFO    : Gen at bus 69 - PEL	: Pg=31.0, Pmax=27.92 -> Pmax=61   samples: 2
% INFO    : Gen at bus 70 - NG	: Pg=30.0, Pmax=27.92 -> Pmax=35   samples: 2
% INFO    : Gen at bus 71 - NG	: Pg=30.0, Pmax=27.92 -> Pmax=65   samples: 5
% INFO    : Gen at bus 72 - NG	: Pg=30.0, Pmax=27.92 -> Pmax=147   samples: 1
% INFO    : Gen at bus 73 - NG	: Pg=28.0, Pmax=27.92 -> Pmax=81   samples: 1
% INFO    : Gen at bus 76 - NG	: Pg=10.0, Pmax=4.0 -> Pmax=43   samples: 1
% INFO    : Gen at bus 77 - PEL	: Pg=3.0, Pmax=2.4 -> Pmax=8   samples: 1
% INFO    : Gen at bus 78 - PEL	: Pg=0.0, Pmax=18.0 -> Pmax=45   samples: 1
% INFO    : Gen at bus 79 - PEL	: Pg=0.0, Pmax=18.0 -> Pmax=12   samples: 1
% INFO    : Gen at bus 90 - NG	: Pg=4.0, Pmax=3.2 -> Pmax=14   samples: 11
% INFO    : Gen at bus 91 - NG	: Pg=14.0, Pmax=5.0 -> Pmax=17   samples: 3
% INFO    : Gen at bus 92 - PEL	: Pg=0.0, Pmax=6.3 -> Pmax=5   samples: 1
% INFO    : Gen at bus 94 - PEL	: Pg=28.0, Pmax=18.0 -> Pmax=73   samples: 1
% INFO    : Gen at bus 104 - PEL	: Pg=84.0, Pmax=67.6 -> Pmax=140   samples: 4
% INFO    : Gen at bus 105 - NG	: Pg=181.0, Pmax=154.8 -> Pmax=208   samples: 17
% INFO    : Gen at bus 114 - PEL	: Pg=8.0, Pmax=1.4 -> Pmax=16   samples: 2
% INFO    : Gen at bus 115 - NG	: Pg=150.0, Pmax=133.5 -> Pmax=214   samples: 2
% INFO    : Gen at bus 125 - COW	: Pg=83.0, Pmax=130.05 -> Pmax=171   samples: 2
% INFO    : Gen at bus 126 - NG	: Pg=87.0, Pmax=130.05 -> Pmax=220   samples: 1
% INFO    : Gen at bus 127 - NG	: Pg=85.0, Pmax=130.05 -> Pmax=186   samples: 2
% INFO    : Gen at bus 135 - COW	: Pg=282.0, Pmax=446.4 -> Pmax=475   samples: 3
% INFO    : Gen at bus 136 - NG	: Pg=290.0, Pmax=446.4 -> Pmax=501   samples: 16
% INFO    : Gen at bus 147 - NG	: Pg=103.0, Pmax=92.4 -> Pmax=264   samples: 2
% INFO    : Gen at bus 151 - COW	: Pg=8.0, Pmax=5.4 -> Pmax=17   samples: 4
% INFO    : Gen at bus 152 - NG	: Pg=54.0, Pmax=77.22 -> Pmax=91   samples: 1
% INFO    : Gen at bus 153 - COW	: Pg=54.0, Pmax=77.22 -> Pmax=229   samples: 6
% INFO    : Gen at bus 154 - NG	: Pg=54.0, Pmax=77.22 -> Pmax=138   samples: 2
% INFO    : Gen at bus 155 - NG	: Pg=54.0, Pmax=77.22 -> Pmax=175   samples: 2
% INFO    : Gen at bus 161 - NG	: Pg=0.0, Pmax=138.6 -> Pmax=213   samples: 1
% INFO    : Gen at bus 164 - COW	: Pg=0.0, Pmax=12.0 -> Pmax=37   samples: 1
% INFO    : Gen at bus 165 - NG	: Pg=0.0, Pmax=26.0 -> Pmax=105   samples: 1
% INFO    : Gen at bus 166 - COW	: Pg=0.0, Pmax=9.4 -> Pmax=537   samples: 1
% INFO    : Gen at bus 167 - NG	: Pg=19.0, Pmax=9.4 -> Pmax=46   samples: 1
% INFO    : Gen at bus 168 - NG	: Pg=0.0, Pmax=9.4 -> Pmax=68   samples: 1
% INFO    : Gen at bus 169 - NG	: Pg=0.0, Pmax=9.4 -> Pmax=64   samples: 1
% INFO    : Gen at bus 170 - NG	: Pg=16.0, Pmax=9.4 -> Pmax=16   samples: 1
% INFO    : Gen at bus 182 - NG	: Pg=32.0, Pmax=17.5 -> Pmax=139   samples: 9
% INFO    : Gen at bus 183 - NG	: Pg=36.0, Pmax=26.6 -> Pmax=100   samples: 3
% INFO    : Gen at bus 189 - COW	: Pg=405.0, Pmax=569.15 -> Pmax=1770   samples: 2
% INFO    : Gen at bus 196 - NG	: Pg=0.0, Pmax=67.5 -> Pmax=34   samples: 1
% INFO    : Gen at bus 197 - NG	: Pg=0.0, Pmax=67.5 -> Pmax=238   samples: 1
% INFO    : 
% INFO    : === Generator Active Capacity LB Model Notes ===
% INFO    : Gen at bus 49	: Pmin=1.36 -> Pmin=0.68 
% INFO    : Gen at bus 50	: Pmin=1.36 -> Pmin=0.68 
% INFO    : Gen at bus 51	: Pmin=1.36 -> Pmin=0.68 
% INFO    : Gen at bus 52	: Pmin=1.36 -> Pmin=0.68 
% INFO    : Gen at bus 53	: Pmin=2.72 -> Pmin=1.36 
% INFO    : Gen at bus 65	: Pmin=86.5 -> Pmin=43.25 
% INFO    : Gen at bus 67	: Pmin=1.41 -> Pmin=0.705 
% INFO    : Gen at bus 68	: Pmin=8.38 -> Pmin=4.19 
% INFO    : Gen at bus 69	: Pmin=8.38 -> Pmin=4.19 
% INFO    : Gen at bus 70	: Pmin=8.38 -> Pmin=4.19 
% INFO    : Gen at bus 71	: Pmin=8.38 -> Pmin=4.19 
% INFO    : Gen at bus 72	: Pmin=8.38 -> Pmin=4.19 
% INFO    : Gen at bus 73	: Pmin=8.38 -> Pmin=4.19 
% INFO    : Gen at bus 76	: Pmin=1.2 -> Pmin=0.6 
% INFO    : Gen at bus 77	: Pmin=0.72 -> Pmin=0.36 
% INFO    : Gen at bus 78	: Pmin=5.4 -> Pmin=2.7 
% INFO    : Gen at bus 79	: Pmin=5.4 -> Pmin=2.7 
% INFO    : Gen at bus 90	: Pmin=0.96 -> Pmin=0.48 
% INFO    : Gen at bus 91	: Pmin=1.5 -> Pmin=0.75 
% INFO    : Gen at bus 92	: Pmin=1.89 -> Pmin=0.945 
% INFO    : Gen at bus 94	: Pmin=5.4 -> Pmin=2.7 
% INFO    : Gen at bus 104	: Pmin=67.6 -> Pmin=33.8 
% INFO    : Gen at bus 105	: Pmin=154.8 -> Pmin=77.4 
% INFO    : Gen at bus 114	: Pmin=1.4 -> Pmin=0.7 
% INFO    : Gen at bus 115	: Pmin=133.5 -> Pmin=66.75 
% INFO    : Gen at bus 125	: Pmin=39.02 -> Pmin=19.51 
% INFO    : Gen at bus 126	: Pmin=39.02 -> Pmin=19.51 
% INFO    : Gen at bus 127	: Pmin=39.02 -> Pmin=19.51 
% INFO    : Gen at bus 135	: Pmin=133.92 -> Pmin=66.96 
% INFO    : Gen at bus 136	: Pmin=133.92 -> Pmin=66.96 
% INFO    : Gen at bus 147	: Pmin=92.4 -> Pmin=46.2 
% INFO    : Gen at bus 151	: Pmin=1.62 -> Pmin=0.81 
% INFO    : Gen at bus 152	: Pmin=23.17 -> Pmin=11.585 
% INFO    : Gen at bus 153	: Pmin=23.17 -> Pmin=11.585 
% INFO    : Gen at bus 154	: Pmin=23.17 -> Pmin=11.585 
% INFO    : Gen at bus 155	: Pmin=23.17 -> Pmin=11.585 
% INFO    : Gen at bus 161	: Pmin=41.58 -> Pmin=20.79 
% INFO    : Gen at bus 164	: Pmin=3.6 -> Pmin=1.8 
% INFO    : Gen at bus 165	: Pmin=7.8 -> Pmin=3.9 
% INFO    : Gen at bus 166	: Pmin=2.82 -> Pmin=1.41 
% INFO    : Gen at bus 167	: Pmin=2.82 -> Pmin=1.41 
% INFO    : Gen at bus 168	: Pmin=2.82 -> Pmin=1.41 
% INFO    : Gen at bus 169	: Pmin=2.82 -> Pmin=1.41 
% INFO    : Gen at bus 170	: Pmin=2.82 -> Pmin=1.41 
% INFO    : Gen at bus 182	: Pmin=5.25 -> Pmin=2.625 
% INFO    : Gen at bus 183	: Pmin=7.98 -> Pmin=3.99 
% INFO    : Gen at bus 189	: Pmin=170.75 -> Pmin=85.375 
% INFO    : Gen at bus 196	: Pmin=20.25 -> Pmin=10.125 
% INFO    : Gen at bus 197	: Pmin=20.25 -> Pmin=10.125 
% INFO    : 
% INFO    : === Generator Reactive Capacity Atleast Max 50 Percent Active Model Notes ===
...